<?xml version="1.0" encoding="UTF-8"?>

<!-- generated on 2024-08-21 12:57:07 by Eclipse SUMO netconvert Version 1.20.0
<configuration xmlns:xsi="http://www.w3.org/2001/XMLSchema-instance" xsi:noNamespaceSchemaLocation="http://sumo.dlr.de/xsd/netconvertConfiguration.xsd">

    <input>
        <opendrive-files value="SPoRe.xodr"/>
    </input>

    <output>
        <output-file value="OSTAR_Example.net.xml"/>
    </output>

    <processing>
        <offset.disable-normalization value="true"/>
    </processing>

    <junctions>
        <no-turnarounds.except-deadend value="true"/>
    </junctions>

</configuration>
-->

<net version="1.20" junctionCornerDetail="5" rectangularLaneCut="true" limitTurnSpeed="5.50" xmlns:xsi="http://www.w3.org/2001/XMLSchema-instance" xsi:noNamespaceSchemaLocation="http://sumo.dlr.de/xsd/net_file.xsd">

    <location netOffset="0.00,0.00" convBoundary="57.59,-2507.94,57.65,2499.00" origBoundary="57.59,-2507.94,57.65,2499.00" projParameter="!"/>

    <type id="driving" priority="1" speed="13.89" disallow="pedestrian tram rail_urban rail rail_electric rail_fast ship container cable_car subway aircraft wheelchair scooter drone" width="3.65"/>

    <edge id=":13121.begin_0" function="internal">
        <lane id=":13121.begin_0_0" index="0" disallow="pedestrian tram rail_urban rail rail_electric rail_fast ship container cable_car subway aircraft wheelchair scooter drone" speed="3.82" length="5.11" width="3.50" shape="55.84,-2507.94,-3.00 56.72,-2509.25,-3.00 57.59,-2509.69,-3.00 58.47,-2509.25,-3.00 59.34,-2507.94,-3.00"/>
    </edge>
    <edge id=":13121.end_0" function="internal">
        <lane id=":13121.end_0_0" index="0" disallow="pedestrian tram rail_urban rail rail_electric rail_fast ship container cable_car subway aircraft wheelchair scooter drone" speed="3.82" length="5.11" width="3.50" shape="59.40,2499.00,-3.00 58.52,2500.32,-3.00 57.65,2500.75,-3.00 56.77,2500.32,-3.00 55.90,2499.00,-3.00"/>
    </edge>

    <edge id="-13121" from="13121.begin" to="13121.end" priority="1" type="driving" shape="57.59,-2507.94,-3.00 57.59,-2506.16,-3.00 57.59,-2504.38,-3.00 57.59,-2502.61,-3.00 57.59,-2500.83,-3.00 57.59,-2498.83,-3.00 57.59,-2496.83,-3.00 57.59,-2494.83,-3.00 57.59,-2492.83,-3.00 57.59,-2490.83,-3.00 57.59,-2488.83,-3.00 57.59,-2486.83,-3.00 57.59,-2484.83,-3.00 57.59,-2482.83,-3.00 57.59,-2480.83,-3.00 57.59,-2478.83,-3.00 57.59,-2476.83,-3.00 57.59,-2474.83,-3.00 57.59,-2472.83,-3.00 57.59,-2470.83,-3.00 57.59,-2468.84,-3.00 57.59,-2466.84,-3.00 57.59,-2464.84,-3.00 57.59,-2462.84,-3.00 57.59,-2460.84,-3.00 57.59,-2458.84,-3.00 57.59,-2456.84,-3.00 57.59,-2454.84,-3.00 57.59,-2452.84,-3.00 57.59,-2450.84,-3.00 57.59,-2448.84,-3.00 57.59,-2446.84,-3.00 57.59,-2444.84,-3.00 57.59,-2442.84,-3.00 57.59,-2440.84,-3.00 57.59,-2438.84,-3.00 57.59,-2436.84,-3.00 57.59,-2434.84,-3.00 57.59,-2432.84,-3.00 57.59,-2430.84,-3.00 57.59,-2428.84,-3.00 57.59,-2426.84,-3.00 57.59,-2424.85,-3.00 57.59,-2422.85,-3.00 57.59,-2420.85,-3.00 57.59,-2418.85,-3.00 57.59,-2416.85,-3.00 57.59,-2414.85,-3.00 57.59,-2412.85,-3.00 57.59,-2410.85,-3.00 57.59,-2408.85,-3.00 57.59,-2406.85,-3.00 57.59,-2404.85,-3.00 57.59,-2402.85,-3.00 57.59,-2400.85,-3.00 57.59,-2398.85,-3.00 57.59,-2396.85,-3.00 57.59,-2394.85,-3.00 57.59,-2392.85,-3.00 57.59,-2390.85,-3.00 57.59,-2388.85,-3.00 57.59,-2386.85,-3.00 57.59,-2384.85,-3.00 57.59,-2382.86,-3.00 57.59,-2380.86,-3.00 57.59,-2378.86,-3.00 57.59,-2376.86,-3.00 57.59,-2374.86,-3.00 57.59,-2372.86,-3.00 57.59,-2370.86,-3.00 57.59,-2368.86,-3.00 57.59,-2366.86,-3.00 57.59,-2364.86,-3.00 57.59,-2362.86,-3.00 57.59,-2360.86,-3.00 57.59,-2358.86,-3.00 57.59,-2356.86,-3.00 57.59,-2354.86,-3.00 57.59,-2352.86,-3.00 57.59,-2350.86,-3.00 57.59,-2348.86,-3.00 57.59,-2346.86,-3.00 57.59,-2344.86,-3.00 57.59,-2342.86,-3.00 57.59,-2340.87,-3.00 57.59,-2338.87,-3.00 57.59,-2336.87,-3.00 57.59,-2334.87,-3.00 57.59,-2332.87,-3.00 57.59,-2330.87,-3.00 57.59,-2328.87,-3.00 57.59,-2326.87,-3.00 57.59,-2324.87,-3.00 57.59,-2322.87,-3.00 57.59,-2320.87,-3.00 57.59,-2318.87,-3.00 57.59,-2316.87,-3.00 57.59,-2314.87,-3.00 57.59,-2312.87,-3.00 57.59,-2310.87,-3.00 57.59,-2308.87,-3.00 57.59,-2306.87,-3.00 57.59,-2304.87,-3.00 57.59,-2302.87,-3.00 57.59,-2300.87,-3.00 57.59,-2298.89,-3.00 57.59,-2296.91,-3.00 57.59,-2294.93,-3.00 57.59,-2292.95,-3.00 57.59,-2290.97,-3.00 57.59,-2288.99,-3.00 57.59,-2287.01,-3.00 57.59,-2285.03,-3.00 57.59,-2283.05,-3.00 57.59,-2281.07,-3.00 57.59,-2279.09,-3.00 57.59,-2277.11,-3.00 57.59,-2275.13,-3.00 57.59,-2273.15,-3.00 57.59,-2271.17,-3.00 57.59,-2269.19,-3.00 57.59,-2267.21,-3.00 57.59,-2265.23,-3.00 57.59,-2263.25,-3.00 57.59,-2261.27,-3.00 57.59,-2259.29,-3.00 57.59,-2257.31,-3.00 57.59,-2255.33,-3.00 57.59,-2253.34,-3.00 57.59,-2251.36,-3.00 57.59,-2249.38,-3.00 57.59,-2247.40,-3.00 57.59,-2245.42,-3.00 57.59,-2243.44,-3.00 57.59,-2241.46,-3.00 57.59,-2239.48,-3.00 57.59,-2237.50,-3.00 57.59,-2235.52,-3.00 57.59,-2233.54,-3.00 57.59,-2231.56,-3.00 57.59,-2229.58,-3.00 57.59,-2227.60,-3.00 57.59,-2225.62,-3.00 57.59,-2223.64,-3.00 57.59,-2221.66,-3.00 57.59,-2219.68,-3.00 57.59,-2217.70,-3.00 57.59,-2215.72,-3.00 57.59,-2213.74,-3.00 57.59,-2211.76,-3.00 57.59,-2209.78,-3.00 57.59,-2207.80,-3.00 57.59,-2205.81,-3.00 57.59,-2203.83,-3.00 57.59,-2201.85,-3.00 57.59,-2199.87,-3.00 57.59,-2197.89,-3.00 57.59,-2195.91,-3.00 57.59,-2193.93,-3.00 57.59,-2191.95,-3.00 57.59,-2189.97,-3.00 57.59,-2187.99,-3.00 57.59,-2186.01,-3.00 57.59,-2184.03,-3.00 57.59,-2182.05,-3.00 57.59,-2180.07,-3.00 57.59,-2178.09,-3.00 57.59,-2176.11,-3.00 57.59,-2174.13,-3.00 57.59,-2172.15,-3.00 57.59,-2170.17,-3.00 57.59,-2168.19,-3.00 57.59,-2166.21,-3.00 57.59,-2164.23,-3.00 57.59,-2162.25,-3.00 57.59,-2160.27,-3.00 57.59,-2158.29,-3.00 57.59,-2156.30,-3.00 57.59,-2154.32,-3.00 57.59,-2152.34,-3.00 57.59,-2150.36,-3.00 57.59,-2148.38,-3.00 57.59,-2146.40,-3.00 57.59,-2144.42,-3.00 57.59,-2142.44,-3.00 57.59,-2140.46,-3.00 57.59,-2138.48,-3.00 57.59,-2136.50,-3.00 57.59,-2134.52,-3.00 57.59,-2132.54,-3.00 57.59,-2130.56,-3.00 57.60,-2128.58,-3.00 57.60,-2126.60,-3.00 57.60,-2124.62,-3.00 57.60,-2122.64,-3.00 57.60,-2120.66,-3.00 57.60,-2118.68,-3.00 57.60,-2116.70,-3.00 57.60,-2114.72,-3.00 57.60,-2112.74,-3.00 57.60,-2110.76,-3.00 57.60,-2108.78,-3.00 57.60,-2106.79,-3.00 57.60,-2104.81,-3.00 57.60,-2102.83,-3.00 57.60,-2100.85,-3.00 57.60,-2098.86,-3.00 57.60,-2096.86,-3.00 57.60,-2094.86,-3.00 57.60,-2092.86,-3.00 57.60,-2090.86,-3.00 57.60,-2088.86,-3.00 57.60,-2086.86,-3.00 57.60,-2084.87,-3.00 57.60,-2082.87,-3.00 57.60,-2080.87,-3.00 57.60,-2078.87,-3.00 57.60,-2076.87,-3.00 57.60,-2074.87,-3.00 57.60,-2072.88,-3.00 57.60,-2070.88,-3.00 57.60,-2068.88,-3.00 57.60,-2066.88,-3.00 57.60,-2064.88,-3.00 57.60,-2062.88,-3.00 57.60,-2060.89,-3.00 57.60,-2058.89,-3.00 57.60,-2056.89,-3.00 57.60,-2054.89,-3.00 57.60,-2052.89,-3.00 57.60,-2050.89,-3.00 57.60,-2048.90,-3.00 57.60,-2046.90,-3.00 57.60,-2044.90,-3.00 57.60,-2042.90,-3.00 57.60,-2040.90,-3.00 57.60,-2038.90,-3.00 57.60,-2036.90,-3.00 57.60,-2034.91,-3.00 57.60,-2032.91,-3.00 57.60,-2030.91,-3.00 57.60,-2028.91,-3.00 57.60,-2026.91,-3.00 57.60,-2024.91,-3.00 57.60,-2022.92,-3.00 57.60,-2020.92,-3.00 57.60,-2018.92,-3.00 57.60,-2016.92,-3.00 57.60,-2014.92,-3.00 57.60,-2012.92,-3.00 57.60,-2010.93,-3.00 57.60,-2008.93,-3.00 57.60,-2006.93,-3.00 57.60,-2004.93,-3.00 57.60,-2002.93,-3.00 57.60,-2000.93,-3.00 57.60,-1998.94,-3.00 57.60,-1996.94,-3.00 57.60,-1994.94,-3.00 57.60,-1992.94,-3.00 57.60,-1990.94,-3.00 57.60,-1988.94,-3.00 57.60,-1986.94,-3.00 57.60,-1984.95,-3.00 57.60,-1982.95,-3.00 57.60,-1980.95,-3.00 57.60,-1978.95,-3.00 57.60,-1976.95,-3.00 57.60,-1974.95,-3.00 57.60,-1972.96,-3.00 57.60,-1970.96,-3.00 57.60,-1968.96,-3.00 57.60,-1966.96,-3.00 57.60,-1964.96,-3.00 57.60,-1962.96,-3.00 57.60,-1960.97,-3.00 57.60,-1958.97,-3.00 57.60,-1956.97,-3.00 57.60,-1954.97,-3.00 57.60,-1952.97,-3.00 57.60,-1950.97,-3.00 57.60,-1948.98,-3.00 57.60,-1946.98,-3.00 57.60,-1944.98,-3.00 57.60,-1942.98,-3.00 57.60,-1940.98,-3.00 57.60,-1938.98,-3.00 57.60,-1936.98,-3.00 57.60,-1934.99,-3.00 57.60,-1932.99,-3.00 57.60,-1930.99,-3.00 57.60,-1928.99,-3.00 57.60,-1926.99,-3.00 57.60,-1924.99,-3.00 57.60,-1923.00,-3.00 57.60,-1921.00,-3.00 57.60,-1919.00,-3.00 57.60,-1917.00,-3.00 57.60,-1915.00,-3.00 57.60,-1913.00,-3.00 57.60,-1911.01,-3.00 57.60,-1909.01,-3.00 57.60,-1907.01,-3.00 57.60,-1905.01,-3.00 57.60,-1903.01,-3.00 57.60,-1901.01,-3.00 57.60,-1899.03,-3.00 57.60,-1897.05,-3.00 57.60,-1895.07,-3.00 57.60,-1893.09,-3.00 57.60,-1891.10,-3.00 57.60,-1889.12,-3.00 57.60,-1887.14,-3.00 57.60,-1885.16,-3.00 57.60,-1883.17,-3.00 57.60,-1881.19,-3.00 57.60,-1879.21,-3.00 57.60,-1877.23,-3.00 57.60,-1875.25,-3.00 57.60,-1873.26,-3.00 57.60,-1871.28,-3.00 57.60,-1869.30,-3.00 57.60,-1867.32,-3.00 57.60,-1865.34,-3.00 57.60,-1863.35,-3.00 57.60,-1861.37,-3.00 57.60,-1859.39,-3.00 57.60,-1857.41,-3.00 57.60,-1855.43,-3.00 57.60,-1853.44,-3.00 57.60,-1851.46,-3.00 57.60,-1849.48,-3.00 57.60,-1847.50,-3.00 57.60,-1845.51,-3.00 57.60,-1843.53,-3.00 57.60,-1841.55,-3.00 57.60,-1839.57,-3.00 57.60,-1837.59,-3.00 57.60,-1835.60,-3.00 57.60,-1833.62,-3.00 57.60,-1831.64,-3.00 57.60,-1829.66,-3.00 57.60,-1827.68,-3.00 57.60,-1825.69,-3.00 57.60,-1823.71,-3.00 57.60,-1821.73,-3.00 57.60,-1819.75,-3.00 57.60,-1817.77,-3.00 57.60,-1815.78,-3.00 57.60,-1813.80,-3.00 57.60,-1811.82,-3.00 57.60,-1809.84,-3.00 57.60,-1807.86,-3.00 57.60,-1805.87,-3.00 57.60,-1803.89,-3.00 57.60,-1801.91,-3.00 57.60,-1799.93,-3.00 57.60,-1797.94,-3.00 57.60,-1795.96,-3.00 57.60,-1793.98,-3.00 57.60,-1792.00,-3.00 57.60,-1790.02,-3.00 57.60,-1788.03,-3.00 57.60,-1786.05,-3.00 57.60,-1784.07,-3.00 57.60,-1782.09,-3.00 57.60,-1780.11,-3.00 57.60,-1778.12,-3.00 57.60,-1776.14,-3.00 57.60,-1774.16,-3.00 57.60,-1772.18,-3.00 57.60,-1770.20,-3.00 57.60,-1768.21,-3.00 57.60,-1766.23,-3.00 57.60,-1764.25,-3.00 57.60,-1762.27,-3.00 57.60,-1760.28,-3.00 57.60,-1758.30,-3.00 57.60,-1756.32,-3.00 57.60,-1754.34,-3.00 57.60,-1752.36,-3.00 57.60,-1750.37,-3.00 57.60,-1748.39,-3.00 57.60,-1746.41,-3.00 57.60,-1744.43,-3.00 57.60,-1742.45,-3.00 57.60,-1740.46,-3.00 57.60,-1738.48,-3.00 57.60,-1736.50,-3.00 57.60,-1734.52,-3.00 57.60,-1732.54,-3.00 57.60,-1730.55,-3.00 57.60,-1728.57,-3.00 57.60,-1726.59,-3.00 57.60,-1724.61,-3.00 57.60,-1722.62,-3.00 57.60,-1720.64,-3.00 57.60,-1718.66,-3.00 57.60,-1716.68,-3.00 57.60,-1714.70,-3.00 57.60,-1712.71,-3.00 57.60,-1710.73,-3.00 57.60,-1708.75,-3.00 57.60,-1706.77,-3.00 57.60,-1704.79,-3.00 57.60,-1702.80,-3.00 57.60,-1700.82,-3.00 57.60,-1698.82,-3.00 57.60,-1696.82,-3.00 57.60,-1694.82,-3.00 57.60,-1692.83,-3.00 57.60,-1690.83,-3.00 57.60,-1688.83,-3.00 57.60,-1686.83,-3.00 57.60,-1684.83,-3.00 57.60,-1682.83,-3.00 57.60,-1680.83,-3.00 57.60,-1678.83,-3.00 57.60,-1676.83,-3.00 57.60,-1674.84,-3.00 57.60,-1672.84,-3.00 57.60,-1670.84,-3.00 57.60,-1668.84,-3.00 57.60,-1666.84,-3.00 57.60,-1664.84,-3.00 57.60,-1662.84,-3.00 57.60,-1660.84,-3.00 57.60,-1658.84,-3.00 57.60,-1656.85,-3.00 57.60,-1654.85,-3.00 57.60,-1652.85,-3.00 57.60,-1650.85,-3.00 57.60,-1648.85,-3.00 57.60,-1646.85,-3.00 57.60,-1644.85,-3.00 57.60,-1642.85,-3.00 57.60,-1640.85,-3.00 57.60,-1638.85,-3.00 57.60,-1636.86,-3.00 57.60,-1634.86,-3.00 57.60,-1632.86,-3.00 57.60,-1630.86,-3.00 57.60,-1628.86,-3.00 57.60,-1626.86,-3.00 57.60,-1624.86,-3.00 57.60,-1622.86,-3.00 57.60,-1620.86,-3.00 57.60,-1618.87,-3.00 57.60,-1616.87,-3.00 57.60,-1614.87,-3.00 57.60,-1612.87,-3.00 57.60,-1610.87,-3.00 57.60,-1608.87,-3.00 57.60,-1606.87,-3.00 57.60,-1604.87,-3.00 57.60,-1602.87,-3.00 57.60,-1600.87,-3.00 57.60,-1598.88,-3.00 57.60,-1596.88,-3.00 57.60,-1594.88,-3.00 57.60,-1592.88,-3.00 57.60,-1590.88,-3.00 57.60,-1588.88,-3.00 57.60,-1586.88,-3.00 57.60,-1584.88,-3.00 57.60,-1582.88,-3.00 57.60,-1580.89,-3.00 57.60,-1578.89,-3.00 57.60,-1576.89,-3.00 57.60,-1574.89,-3.00 57.60,-1572.89,-3.00 57.60,-1570.89,-3.00 57.60,-1568.89,-3.00 57.60,-1566.89,-3.00 57.60,-1564.89,-3.00 57.60,-1562.90,-3.00 57.60,-1560.90,-3.00 57.60,-1558.90,-3.00 57.60,-1556.90,-3.00 57.60,-1554.90,-3.00 57.60,-1552.90,-3.00 57.60,-1550.90,-3.00 57.60,-1548.90,-3.00 57.60,-1546.90,-3.00 57.60,-1544.90,-3.00 57.60,-1542.91,-3.00 57.60,-1540.91,-3.00 57.60,-1538.91,-3.00 57.60,-1536.91,-3.00 57.60,-1534.91,-3.00 57.60,-1532.91,-3.00 57.60,-1530.91,-3.00 57.60,-1528.91,-3.00 57.60,-1526.91,-3.00 57.60,-1524.92,-3.00 57.60,-1522.92,-3.00 57.60,-1520.92,-3.00 57.60,-1518.92,-3.00 57.60,-1516.92,-3.00 57.60,-1514.92,-3.00 57.60,-1512.92,-3.00 57.60,-1510.92,-3.00 57.60,-1508.92,-3.00 57.60,-1506.92,-3.00 57.60,-1504.93,-3.00 57.60,-1502.93,-3.00 57.60,-1500.93,-3.00 57.60,-1498.93,-3.00 57.60,-1496.93,-3.00 57.60,-1494.93,-3.00 57.60,-1492.93,-3.00 57.60,-1490.93,-3.00 57.60,-1488.94,-3.00 57.60,-1486.94,-3.00 57.60,-1484.94,-3.00 57.60,-1482.94,-3.00 57.60,-1480.94,-3.00 57.60,-1478.94,-3.00 57.60,-1476.94,-3.00 57.60,-1474.94,-3.00 57.60,-1472.94,-3.00 57.60,-1470.95,-3.00 57.60,-1468.95,-3.00 57.60,-1466.95,-3.00 57.60,-1464.95,-3.00 57.60,-1462.95,-3.00 57.60,-1460.95,-3.00 57.60,-1458.95,-3.00 57.60,-1456.95,-3.00 57.60,-1454.96,-3.00 57.60,-1452.96,-3.00 57.60,-1450.96,-3.00 57.60,-1448.96,-3.00 57.60,-1446.96,-3.00 57.60,-1444.96,-3.00 57.60,-1442.96,-3.00 57.60,-1440.96,-3.00 57.60,-1438.96,-3.00 57.60,-1436.97,-3.00 57.60,-1434.97,-3.00 57.60,-1432.97,-3.00 57.60,-1430.97,-3.00 57.60,-1428.97,-3.00 57.60,-1426.97,-3.00 57.60,-1424.97,-3.00 57.60,-1422.97,-3.00 57.60,-1420.98,-3.00 57.60,-1418.98,-3.00 57.60,-1416.98,-3.00 57.60,-1414.98,-3.00 57.60,-1412.98,-3.00 57.60,-1410.98,-3.00 57.60,-1408.98,-3.00 57.60,-1406.98,-3.00 57.60,-1404.98,-3.00 57.60,-1402.99,-3.00 57.60,-1400.99,-3.00 57.60,-1398.99,-3.00 57.60,-1396.99,-3.00 57.60,-1394.99,-3.00 57.60,-1392.99,-3.00 57.60,-1390.99,-3.00 57.60,-1388.99,-3.00 57.60,-1387.00,-3.00 57.60,-1385.00,-3.00 57.60,-1383.00,-3.00 57.60,-1381.00,-3.00 57.60,-1379.00,-3.00 57.60,-1377.00,-3.00 57.60,-1375.00,-3.00 57.60,-1373.00,-3.00 57.60,-1371.00,-3.00 57.60,-1369.01,-3.00 57.60,-1367.01,-3.00 57.60,-1365.01,-3.00 57.60,-1363.01,-3.00 57.60,-1361.01,-3.00 57.60,-1359.01,-3.00 57.60,-1357.01,-3.00 57.60,-1355.01,-3.00 57.60,-1353.02,-3.00 57.60,-1351.02,-3.00 57.60,-1349.02,-3.00 57.60,-1347.02,-3.00 57.60,-1345.02,-3.00 57.60,-1343.02,-3.00 57.60,-1341.02,-3.00 57.60,-1339.02,-3.00 57.60,-1337.02,-3.00 57.60,-1335.03,-3.00 57.60,-1333.03,-3.00 57.60,-1331.03,-3.00 57.60,-1329.03,-3.00 57.60,-1327.03,-3.00 57.60,-1325.03,-3.00 57.60,-1323.03,-3.00 57.60,-1321.03,-3.00 57.60,-1319.04,-3.00 57.60,-1317.04,-3.00 57.60,-1315.04,-3.00 57.60,-1313.04,-3.00 57.60,-1311.04,-3.00 57.60,-1309.04,-3.00 57.60,-1307.04,-3.00 57.60,-1305.04,-3.00 57.60,-1303.04,-3.00 57.60,-1301.05,-3.00 57.60,-1299.06,-3.00 57.60,-1297.08,-3.00 57.60,-1295.10,-3.00 57.60,-1293.12,-3.00 57.60,-1291.14,-3.00 57.60,-1289.15,-3.00 57.60,-1287.17,-3.00 57.60,-1285.19,-3.00 57.60,-1283.21,-3.00 57.60,-1281.23,-3.00 57.60,-1279.24,-3.00 57.60,-1277.26,-3.00 57.60,-1275.28,-3.00 57.61,-1273.30,-3.00 57.61,-1271.32,-3.00 57.61,-1269.34,-3.00 57.61,-1267.35,-3.00 57.61,-1265.37,-3.00 57.61,-1263.39,-3.00 57.61,-1261.41,-3.00 57.61,-1259.43,-3.00 57.61,-1257.44,-3.00 57.61,-1255.46,-3.00 57.61,-1253.48,-3.00 57.61,-1251.50,-3.00 57.61,-1249.52,-3.00 57.61,-1247.53,-3.00 57.61,-1245.55,-3.00 57.61,-1243.57,-3.00 57.61,-1241.59,-3.00 57.61,-1239.61,-3.00 57.61,-1237.62,-3.00 57.61,-1235.64,-3.00 57.61,-1233.66,-3.00 57.61,-1231.68,-3.00 57.61,-1229.70,-3.00 57.61,-1227.71,-3.00 57.61,-1225.73,-3.00 57.61,-1223.75,-3.00 57.61,-1221.77,-3.00 57.61,-1219.79,-3.00 57.61,-1217.80,-3.00 57.61,-1215.82,-3.00 57.61,-1213.84,-3.00 57.61,-1211.86,-3.00 57.61,-1209.88,-3.00 57.61,-1207.90,-3.00 57.61,-1205.91,-3.00 57.61,-1203.93,-3.00 57.61,-1201.95,-3.00 57.61,-1199.97,-3.00 57.61,-1197.99,-3.00 57.61,-1196.00,-3.00 57.61,-1194.02,-3.00 57.61,-1192.04,-3.00 57.61,-1190.06,-3.00 57.61,-1188.08,-3.00 57.61,-1186.09,-3.00 57.61,-1184.11,-3.00 57.61,-1182.13,-3.00 57.61,-1180.15,-3.00 57.61,-1178.17,-3.00 57.61,-1176.18,-3.00 57.61,-1174.20,-3.00 57.61,-1172.22,-3.00 57.61,-1170.24,-3.00 57.61,-1168.26,-3.00 57.61,-1166.27,-3.00 57.61,-1164.29,-3.00 57.61,-1162.31,-3.00 57.61,-1160.33,-3.00 57.61,-1158.35,-3.00 57.61,-1156.36,-3.00 57.61,-1154.38,-3.00 57.61,-1152.40,-3.00 57.61,-1150.42,-3.00 57.61,-1148.44,-3.00 57.61,-1146.46,-3.00 57.61,-1144.47,-3.00 57.61,-1142.49,-3.00 57.61,-1140.51,-3.00 57.61,-1138.53,-3.00 57.61,-1136.55,-3.00 57.61,-1134.56,-3.00 57.61,-1132.58,-3.00 57.61,-1130.60,-3.00 57.61,-1128.62,-3.00 57.61,-1126.64,-3.00 57.61,-1124.65,-3.00 57.61,-1122.67,-3.00 57.61,-1120.69,-3.00 57.61,-1118.71,-3.00 57.61,-1116.73,-3.00 57.61,-1114.74,-3.00 57.61,-1112.76,-3.00 57.61,-1110.78,-3.00 57.61,-1108.80,-3.00 57.61,-1106.82,-3.00 57.61,-1104.83,-3.00 57.61,-1102.85,-3.00 57.61,-1100.87,-3.00 57.61,-1098.87,-3.00 57.61,-1096.87,-3.00 57.61,-1094.87,-3.00 57.61,-1092.87,-3.00 57.61,-1090.87,-3.00 57.61,-1088.88,-3.00 57.61,-1086.88,-3.00 57.61,-1084.88,-3.00 57.61,-1082.88,-3.00 57.61,-1080.88,-3.00 57.61,-1078.88,-3.00 57.61,-1076.88,-3.00 57.61,-1074.88,-3.00 57.61,-1072.88,-3.00 57.61,-1070.88,-3.00 57.61,-1068.88,-3.00 57.61,-1066.88,-3.00 57.61,-1064.88,-3.00 57.61,-1062.89,-3.00 57.61,-1060.89,-3.00 57.61,-1058.89,-3.00 57.61,-1056.89,-3.00 57.61,-1054.89,-3.00 57.61,-1052.89,-3.00 57.61,-1050.89,-3.00 57.61,-1048.89,-3.00 57.61,-1046.89,-3.00 57.61,-1044.89,-3.00 57.61,-1042.89,-3.00 57.61,-1040.89,-3.00 57.61,-1038.89,-3.00 57.61,-1036.90,-3.00 57.61,-1034.90,-3.00 57.61,-1032.90,-3.00 57.61,-1030.90,-3.00 57.61,-1028.90,-3.00 57.61,-1026.90,-3.00 57.61,-1024.90,-3.00 57.61,-1022.90,-3.00 57.61,-1020.90,-3.00 57.61,-1018.90,-3.00 57.61,-1016.90,-3.00 57.61,-1014.90,-3.00 57.61,-1012.91,-3.00 57.61,-1010.91,-3.00 57.61,-1008.91,-3.00 57.61,-1006.91,-3.00 57.61,-1004.91,-3.00 57.61,-1002.91,-3.00 57.61,-1000.91,-3.00 57.61,-998.91,-3.00 57.61,-996.91,-3.00 57.61,-994.91,-3.00 57.61,-992.91,-3.00 57.61,-990.91,-3.00 57.61,-988.91,-3.00 57.61,-986.92,-3.00 57.61,-984.92,-3.00 57.61,-982.92,-3.00 57.61,-980.92,-3.00 57.61,-978.92,-3.00 57.61,-976.92,-3.00 57.61,-974.92,-3.00 57.61,-972.92,-3.00 57.61,-970.92,-3.00 57.61,-968.92,-3.00 57.61,-966.92,-3.00 57.61,-964.92,-3.00 57.61,-962.92,-3.00 57.61,-960.93,-3.00 57.61,-958.93,-3.00 57.61,-956.93,-3.00 57.61,-954.93,-3.00 57.61,-952.93,-3.00 57.61,-950.93,-3.00 57.61,-948.93,-3.00 57.61,-946.93,-3.00 57.61,-944.93,-3.00 57.61,-942.93,-3.00 57.61,-940.93,-3.00 57.61,-938.93,-3.00 57.61,-936.93,-3.00 57.61,-934.94,-3.00 57.61,-932.94,-3.00 57.61,-930.94,-3.00 57.61,-928.94,-3.00 57.61,-926.94,-3.00 57.61,-924.94,-3.00 57.61,-922.94,-3.00 57.61,-920.94,-3.00 57.61,-918.94,-3.00 57.61,-916.94,-3.00 57.61,-914.94,-3.00 57.61,-912.94,-3.00 57.61,-910.94,-3.00 57.61,-908.95,-3.00 57.61,-906.95,-3.00 57.61,-904.95,-3.00 57.61,-902.95,-3.00 57.61,-900.95,-3.00 57.61,-898.95,-3.00 57.61,-896.95,-3.00 57.61,-894.95,-3.00 57.61,-892.95,-3.00 57.61,-890.95,-3.00 57.61,-888.95,-3.00 57.61,-886.95,-3.00 57.61,-884.96,-3.00 57.61,-882.96,-3.00 57.61,-880.96,-3.00 57.61,-878.96,-3.00 57.61,-876.96,-3.00 57.61,-874.96,-3.00 57.61,-872.96,-3.00 57.61,-870.96,-3.00 57.61,-868.96,-3.00 57.61,-866.96,-3.00 57.61,-864.96,-3.00 57.61,-862.97,-3.00 57.61,-860.97,-3.00 57.61,-858.97,-3.00 57.61,-856.97,-3.00 57.61,-854.97,-3.00 57.61,-852.97,-3.00 57.61,-850.97,-3.00 57.61,-848.97,-3.00 57.61,-846.97,-3.00 57.61,-844.97,-3.00 57.61,-842.97,-3.00 57.61,-840.98,-3.00 57.61,-838.98,-3.00 57.61,-836.98,-3.00 57.61,-834.98,-3.00 57.61,-832.98,-3.00 57.61,-830.98,-3.00 57.61,-828.98,-3.00 57.61,-826.98,-3.00 57.61,-824.98,-3.00 57.61,-822.98,-3.00 57.61,-820.98,-3.00 57.61,-818.99,-3.00 57.61,-816.99,-3.00 57.61,-814.99,-3.00 57.61,-812.99,-3.00 57.61,-810.99,-3.00 57.61,-808.99,-3.00 57.61,-806.99,-3.00 57.61,-804.99,-3.00 57.61,-802.99,-3.00 57.61,-800.99,-3.00 57.61,-798.99,-3.00 57.61,-797.00,-3.00 57.61,-795.00,-3.00 57.61,-793.00,-3.00 57.61,-791.00,-3.00 57.61,-789.00,-3.00 57.61,-787.00,-3.00 57.61,-785.00,-3.00 57.61,-783.00,-3.00 57.61,-781.00,-3.00 57.61,-779.00,-3.00 57.61,-777.00,-3.00 57.61,-775.01,-3.00 57.61,-773.01,-3.00 57.61,-771.01,-3.00 57.61,-769.01,-3.00 57.61,-767.01,-3.00 57.61,-765.01,-3.00 57.61,-763.01,-3.00 57.61,-761.01,-3.00 57.61,-759.01,-3.00 57.61,-757.01,-3.00 57.61,-755.01,-3.00 57.61,-753.02,-3.00 57.61,-751.02,-3.00 57.61,-749.02,-3.00 57.61,-747.02,-3.00 57.61,-745.02,-3.00 57.61,-743.02,-3.00 57.61,-741.02,-3.00 57.61,-739.02,-3.00 57.61,-737.02,-3.00 57.61,-735.02,-3.00 57.61,-733.02,-3.00 57.61,-731.03,-3.00 57.61,-729.03,-3.00 57.61,-727.03,-3.00 57.61,-725.03,-3.00 57.61,-723.03,-3.00 57.61,-721.03,-3.00 57.61,-719.03,-3.00 57.61,-717.03,-3.00 57.61,-715.03,-3.00 57.61,-713.03,-3.00 57.61,-711.03,-3.00 57.61,-709.03,-3.00 57.61,-707.04,-3.00 57.61,-705.04,-3.00 57.61,-703.04,-3.00 57.61,-701.04,-3.00 57.61,-699.06,-3.00 57.61,-697.07,-3.00 57.61,-695.09,-3.00 57.61,-693.11,-3.00 57.61,-691.13,-3.00 57.61,-689.14,-3.00 57.61,-687.16,-3.00 57.61,-685.18,-3.00 57.61,-683.20,-3.00 57.61,-681.21,-3.00 57.61,-679.23,-3.00 57.61,-677.25,-3.00 57.61,-675.26,-3.00 57.61,-673.28,-3.00 57.61,-671.30,-3.00 57.61,-669.32,-3.00 57.61,-667.33,-3.00 57.61,-665.35,-3.00 57.61,-663.37,-3.00 57.61,-661.39,-3.00 57.61,-659.40,-3.00 57.61,-657.42,-3.00 57.61,-655.44,-3.00 57.61,-653.46,-3.00 57.61,-651.47,-3.00 57.61,-649.49,-3.00 57.61,-647.51,-3.00 57.61,-645.53,-3.00 57.61,-643.54,-3.00 57.61,-641.56,-3.00 57.61,-639.58,-3.00 57.61,-637.60,-3.00 57.61,-635.61,-3.00 57.61,-633.63,-3.00 57.61,-631.65,-3.00 57.61,-629.66,-3.00 57.61,-627.68,-3.00 57.61,-625.70,-3.00 57.61,-623.72,-3.00 57.61,-621.73,-3.00 57.61,-619.75,-3.00 57.61,-617.77,-3.00 57.61,-615.79,-3.00 57.61,-613.80,-3.00 57.61,-611.82,-3.00 57.61,-609.84,-3.00 57.61,-607.86,-3.00 57.61,-605.87,-3.00 57.61,-603.89,-3.00 57.61,-601.91,-3.00 57.61,-599.93,-3.00 57.61,-597.94,-3.00 57.61,-595.96,-3.00 57.61,-593.98,-3.00 57.61,-592.00,-3.00 57.61,-590.01,-3.00 57.61,-588.03,-3.00 57.61,-586.05,-3.00 57.61,-584.06,-3.00 57.61,-582.08,-3.00 57.61,-580.10,-3.00 57.61,-578.12,-3.00 57.61,-576.13,-3.00 57.61,-574.15,-3.00 57.61,-572.17,-3.00 57.61,-570.19,-3.00 57.61,-568.20,-3.00 57.61,-566.22,-3.00 57.61,-564.24,-3.00 57.61,-562.26,-3.00 57.61,-560.27,-3.00 57.61,-558.29,-3.00 57.61,-556.31,-3.00 57.61,-554.33,-3.00 57.61,-552.34,-3.00 57.61,-550.36,-3.00 57.61,-548.38,-3.00 57.61,-546.40,-3.00 57.61,-544.41,-3.00 57.61,-542.43,-3.00 57.61,-540.45,-3.00 57.61,-538.46,-3.00 57.61,-536.48,-3.00 57.61,-534.50,-3.00 57.61,-532.52,-3.00 57.61,-530.53,-3.00 57.61,-528.55,-3.00 57.61,-526.57,-3.00 57.61,-524.59,-3.00 57.61,-522.60,-3.00 57.61,-520.62,-3.00 57.61,-518.64,-3.00 57.61,-516.66,-3.00 57.61,-514.67,-3.00 57.61,-512.69,-3.00 57.61,-510.71,-3.00 57.61,-508.73,-3.00 57.61,-506.74,-3.00 57.61,-504.76,-3.00 57.61,-502.78,-3.00 57.61,-500.80,-3.00 57.61,-498.80,-3.00 57.61,-496.80,-3.00 57.61,-494.80,-3.00 57.61,-492.80,-3.00 57.61,-490.80,-3.00 57.61,-488.80,-3.00 57.61,-486.80,-3.00 57.61,-484.80,-3.00 57.61,-482.81,-3.00 57.61,-480.81,-3.00 57.61,-478.81,-3.00 57.61,-476.81,-3.00 57.61,-474.81,-3.00 57.61,-472.81,-3.00 57.61,-470.81,-3.00 57.61,-468.81,-3.00 57.61,-466.81,-3.00 57.61,-464.82,-3.00 57.61,-462.82,-3.00 57.61,-460.82,-3.00 57.61,-458.82,-3.00 57.61,-456.82,-3.00 57.61,-454.82,-3.00 57.61,-452.82,-3.00 57.61,-450.82,-3.00 57.61,-448.82,-3.00 57.61,-446.83,-3.00 57.61,-444.83,-3.00 57.61,-442.83,-3.00 57.61,-440.83,-3.00 57.61,-438.83,-3.00 57.61,-436.83,-3.00 57.61,-434.83,-3.00 57.61,-432.83,-3.00 57.61,-430.83,-3.00 57.61,-428.84,-3.00 57.61,-426.84,-3.00 57.61,-424.84,-3.00 57.61,-422.84,-3.00 57.61,-420.84,-3.00 57.61,-418.84,-3.00 57.62,-416.84,-3.00 57.62,-414.84,-3.00 57.62,-412.84,-3.00 57.62,-410.85,-3.00 57.62,-408.85,-3.00 57.62,-406.85,-3.00 57.62,-404.85,-3.00 57.62,-402.85,-3.00 57.62,-400.85,-3.00 57.62,-398.85,-3.00 57.62,-396.85,-3.00 57.62,-394.85,-3.00 57.62,-392.85,-3.00 57.62,-390.86,-3.00 57.62,-388.86,-3.00 57.62,-386.86,-3.00 57.62,-384.86,-3.00 57.62,-382.86,-3.00 57.62,-380.86,-3.00 57.62,-378.86,-3.00 57.62,-376.86,-3.00 57.62,-374.86,-3.00 57.62,-372.87,-3.00 57.62,-370.87,-3.00 57.62,-368.87,-3.00 57.62,-366.87,-3.00 57.62,-364.87,-3.00 57.62,-362.87,-3.00 57.62,-360.87,-3.00 57.62,-358.87,-3.00 57.62,-356.87,-3.00 57.62,-354.88,-3.00 57.62,-352.88,-3.00 57.62,-350.88,-3.00 57.62,-348.88,-3.00 57.62,-346.88,-3.00 57.62,-344.88,-3.00 57.62,-342.88,-3.00 57.62,-340.88,-3.00 57.62,-338.88,-3.00 57.62,-336.89,-3.00 57.62,-334.89,-3.00 57.62,-332.89,-3.00 57.62,-330.89,-3.00 57.62,-328.89,-3.00 57.62,-326.89,-3.00 57.62,-324.89,-3.00 57.62,-322.89,-3.00 57.62,-320.89,-3.00 57.62,-318.90,-3.00 57.62,-316.90,-3.00 57.62,-314.90,-3.00 57.62,-312.90,-3.00 57.62,-310.90,-3.00 57.62,-308.90,-3.00 57.62,-306.90,-3.00 57.62,-304.90,-3.00 57.62,-302.90,-3.00 57.62,-300.91,-3.00 57.62,-298.91,-3.00 57.62,-296.91,-3.00 57.62,-294.91,-3.00 57.62,-292.91,-3.00 57.62,-290.91,-3.00 57.62,-288.91,-3.00 57.62,-286.91,-3.00 57.62,-284.91,-3.00 57.62,-282.91,-3.00 57.62,-280.91,-3.00 57.62,-278.92,-3.00 57.62,-276.92,-3.00 57.62,-274.92,-3.00 57.62,-272.92,-3.00 57.62,-270.92,-3.00 57.62,-268.92,-3.00 57.62,-266.92,-3.00 57.62,-264.92,-3.00 57.62,-262.92,-3.00 57.62,-260.92,-3.00 57.62,-258.92,-3.00 57.62,-256.92,-3.00 57.62,-254.93,-3.00 57.62,-252.93,-3.00 57.62,-250.93,-3.00 57.62,-248.93,-3.00 57.62,-246.93,-3.00 57.62,-244.93,-3.00 57.62,-242.93,-3.00 57.62,-240.93,-3.00 57.62,-238.93,-3.00 57.62,-236.93,-3.00 57.62,-234.93,-3.00 57.62,-232.93,-3.00 57.62,-230.94,-3.00 57.62,-228.94,-3.00 57.62,-226.94,-3.00 57.62,-224.94,-3.00 57.62,-222.94,-3.00 57.62,-220.94,-3.00 57.62,-218.94,-3.00 57.62,-216.94,-3.00 57.62,-214.94,-3.00 57.62,-212.94,-3.00 57.62,-210.94,-3.00 57.62,-208.94,-3.00 57.62,-206.95,-3.00 57.62,-204.95,-3.00 57.62,-202.95,-3.00 57.62,-200.95,-3.00 57.62,-198.95,-3.00 57.62,-196.95,-3.00 57.62,-194.95,-3.00 57.62,-192.95,-3.00 57.62,-190.95,-3.00 57.62,-188.95,-3.00 57.62,-186.95,-3.00 57.62,-184.96,-3.00 57.62,-182.96,-3.00 57.62,-180.96,-3.00 57.62,-178.96,-3.00 57.62,-176.96,-3.00 57.62,-174.96,-3.00 57.62,-172.96,-3.00 57.62,-170.96,-3.00 57.62,-168.96,-3.00 57.62,-166.96,-3.00 57.62,-164.96,-3.00 57.62,-162.96,-3.00 57.62,-160.97,-3.00 57.62,-158.97,-3.00 57.62,-156.97,-3.00 57.62,-154.97,-3.00 57.62,-152.97,-3.00 57.62,-150.97,-3.00 57.62,-148.97,-3.00 57.62,-146.97,-3.00 57.62,-144.97,-3.00 57.62,-142.97,-3.00 57.62,-140.97,-3.00 57.62,-138.97,-3.00 57.62,-136.98,-3.00 57.62,-134.98,-3.00 57.62,-132.98,-3.00 57.62,-130.98,-3.00 57.62,-128.98,-3.00 57.62,-126.98,-3.00 57.62,-124.98,-3.00 57.62,-122.98,-3.00 57.62,-120.98,-3.00 57.62,-118.98,-3.00 57.62,-116.98,-3.00 57.62,-114.98,-3.00 57.62,-112.99,-3.00 57.62,-110.99,-3.00 57.62,-108.99,-3.00 57.62,-106.99,-3.00 57.62,-104.99,-3.00 57.62,-102.99,-3.00 57.62,-100.99,-3.00 57.62,-99.01,-3.00 57.62,-97.03,-3.00 57.62,-95.05,-3.00 57.62,-93.06,-3.00 57.62,-91.08,-3.00 57.62,-89.10,-3.00 57.62,-87.12,-3.00 57.62,-85.14,-3.00 57.62,-83.16,-3.00 57.62,-81.18,-3.00 57.62,-79.19,-3.00 57.62,-77.21,-3.00 57.62,-75.23,-3.00 57.62,-73.25,-3.00 57.62,-71.27,-3.00 57.62,-69.29,-3.00 57.62,-67.30,-3.00 57.62,-65.32,-3.00 57.62,-63.34,-3.00 57.62,-61.36,-3.00 57.62,-59.38,-3.00 57.62,-57.40,-3.00 57.62,-55.42,-3.00 57.62,-53.43,-3.00 57.62,-51.45,-3.00 57.62,-49.47,-3.00 57.62,-47.49,-3.00 57.62,-45.51,-3.00 57.62,-43.53,-3.00 57.62,-41.54,-3.00 57.62,-39.56,-3.00 57.62,-37.58,-3.00 57.62,-35.60,-3.00 57.62,-33.62,-3.00 57.62,-31.64,-3.00 57.62,-29.66,-3.00 57.62,-27.67,-3.00 57.62,-25.69,-3.00 57.62,-23.71,-3.00 57.62,-21.73,-3.00 57.62,-19.75,-3.00 57.62,-17.77,-3.00 57.62,-15.78,-3.00 57.62,-13.80,-3.00 57.62,-11.82,-3.00 57.62,-9.84,-3.00 57.62,-7.86,-3.00 57.62,-5.88,-3.00 57.62,-3.90,-3.00 57.62,-1.91,-3.00 57.62,0.07,-3.00 57.62,2.05,-3.00 57.62,4.03,-3.00 57.62,6.01,-3.00 57.62,7.99,-3.00 57.62,9.98,-3.00 57.62,11.96,-3.00 57.62,13.94,-3.00 57.62,15.92,-3.00 57.62,17.90,-3.00 57.62,19.88,-3.00 57.62,21.86,-3.00 57.62,23.85,-3.00 57.62,25.83,-3.00 57.62,27.81,-3.00 57.62,29.79,-3.00 57.62,31.77,-3.00 57.62,33.75,-3.00 57.62,35.74,-3.00 57.62,37.72,-3.00 57.62,39.70,-3.00 57.62,41.68,-3.00 57.62,43.66,-3.00 57.62,45.64,-3.00 57.62,47.62,-3.00 57.62,49.61,-3.00 57.62,51.59,-3.00 57.62,53.57,-3.00 57.62,55.55,-3.00 57.62,57.53,-3.00 57.62,59.51,-3.00 57.62,61.50,-3.00 57.62,63.48,-3.00 57.62,65.46,-3.00 57.62,67.44,-3.00 57.62,69.42,-3.00 57.62,71.40,-3.00 57.62,73.39,-3.00 57.62,75.37,-3.00 57.62,77.35,-3.00 57.62,79.33,-3.00 57.62,81.31,-3.00 57.62,83.29,-3.00 57.62,85.27,-3.00 57.62,87.26,-3.00 57.62,89.24,-3.00 57.62,91.22,-3.00 57.62,93.20,-3.00 57.62,95.18,-3.00 57.62,97.16,-3.00 57.62,99.15,-3.00 57.62,101.15,-3.00 57.62,103.14,-3.00 57.62,105.14,-3.00 57.62,107.14,-3.00 57.62,109.14,-3.00 57.62,111.14,-3.00 57.62,113.14,-3.00 57.62,115.14,-3.00 57.62,117.14,-3.00 57.62,119.14,-3.00 57.62,121.14,-3.00 57.62,123.14,-3.00 57.62,125.14,-3.00 57.62,127.14,-3.00 57.62,129.14,-3.00 57.62,131.14,-3.00 57.62,133.14,-3.00 57.62,135.14,-3.00 57.62,137.14,-3.00 57.62,139.14,-3.00 57.62,141.14,-3.00 57.62,143.14,-3.00 57.62,145.14,-3.00 57.62,147.14,-3.00 57.62,149.14,-3.00 57.62,151.14,-3.00 57.62,153.14,-3.00 57.62,155.14,-3.00 57.62,157.14,-3.00 57.62,159.14,-3.00 57.62,161.14,-3.00 57.62,163.14,-3.00 57.62,165.14,-3.00 57.62,167.14,-3.00 57.62,169.14,-3.00 57.62,171.14,-3.00 57.62,173.14,-3.00 57.62,175.14,-3.00 57.62,177.14,-3.00 57.62,179.14,-3.00 57.62,181.14,-3.00 57.62,183.14,-3.00 57.62,185.14,-3.00 57.62,187.14,-3.00 57.62,189.14,-3.00 57.62,191.14,-3.00 57.62,193.14,-3.00 57.62,195.14,-3.00 57.62,197.14,-3.00 57.62,199.14,-3.00 57.62,201.14,-3.00 57.62,203.14,-3.00 57.62,205.14,-3.00 57.62,207.14,-3.00 57.62,209.14,-3.00 57.62,211.14,-3.00 57.62,213.14,-3.00 57.62,215.14,-3.00 57