<?xml version="1.0" encoding="UTF-8"?>

<!-- generated on 2024-08-08 11:09:21 by Eclipse SUMO netedit Version 1.20.0
<configuration xmlns:xsi="http://www.w3.org/2001/XMLSchema-instance" xsi:noNamespaceSchemaLocation="http://sumo.dlr.de/xsd/neteditConfiguration.xsd">

    <input>
        <opendrive-files value="sumoexample.xodr"/>
    </input>

    <output>
        <output-file value="sumoexample.net.xml"/>
    </output>

    <processing>
        <geometry.min-radius.fix.railways value="false"/>
        <geometry.max-grade.fix value="false"/>
        <offset.disable-normalization value="true"/>
        <lefthand value="0"/>
    </processing>

    <junctions>
        <no-turnarounds value="true"/>
        <junctions.corner-detail value="5"/>
        <junctions.limit-turn-speed value="5.50"/>
        <rectangular-lane-cut value="1"/>
    </junctions>

    <pedestrian>
        <walkingareas value="0"/>
    </pedestrian>

</configuration>
-->

<net version="1.20" junctionCornerDetail="5" rectangularLaneCut="true" limitTurnSpeed="5.50" xmlns:xsi="http://www.w3.org/2001/XMLSchema-instance" xsi:noNamespaceSchemaLocation="http://sumo.dlr.de/xsd/net_file.xsd">

    <location netOffset="110.61,104.79" convBoundary="0.00,0.00,340.91,260.35" origBoundary="-110.61,-104.79,230.31,155.56" projParameter="!"/>

    <edge id=":1_0" function="internal">
        <lane id=":1_0_0" index="0" disallow="pedestrian tram rail_urban rail rail_electric rail_fast ship" speed="7.85" length="13.51" width="3.00" shape="98.86,114.79 98.34,111.07 96.80,108.41 94.22,106.82 90.61,106.29"/>
    </edge>
    <edge id=":1_1" function="internal">
        <lane id=":1_1_0" index="0" disallow="pedestrian tram rail_urban rail rail_electric rail_fast ship" speed="13.89" length="20.00" width="3.50" shape="98.86,114.79 98.86,94.79"/>
    </edge>
    <edge id=":1_2" function="internal">
        <lane id=":1_2_0" index="0" disallow="pedestrian tram rail_urban rail rail_electric rail_fast ship" speed="9.14" length="18.75" width="3.00" shape="98.86,114.79 99.59,109.76 101.80,106.16 105.47,104.01 110.61,103.29"/>
    </edge>
    <edge id=":1_3" function="internal">
        <lane id=":1_3_0" index="0" disallow="pedestrian tram rail_urban rail rail_electric rail_fast ship" speed="7.85" length="13.51" width="3.00" shape="110.61,106.54 106.89,107.06 104.24,108.60 102.64,111.18 102.11,114.79"/>
    </edge>
    <edge id=":1_4" function="internal">
        <lane id=":1_4_0" index="0" disallow="pedestrian tram rail_urban rail rail_electric rail_fast ship" speed="13.89" length="20.00" width="3.00" shape="110.61,106.54 90.61,106.29"/>
    </edge>
    <edge id=":1_5" function="internal">
        <lane id=":1_5_0" index="0" disallow="pedestrian tram rail_urban rail rail_electric rail_fast ship" speed="9.19" length="5.43" width="3.50" shape="110.61,106.54 105.47,105.81 105.27,105.68"/>
    </edge>
    <edge id=":1_12" function="internal">
        <lane id=":1_12_0" index="0" disallow="pedestrian tram rail_urban rail rail_electric rail_fast ship" speed="9.19" length="13.52" width="3.50" shape="105.27,105.68 101.80,103.60 99.59,99.93 98.86,94.79"/>
    </edge>
    <edge id=":1_6" function="internal">
        <lane id=":1_6_0" index="0" speed="7.86" length="13.71" width="3.00" shape="102.11,94.79 102.64,98.51 104.23,101.17 106.89,102.76 110.61,103.29"/>
    </edge>
    <edge id=":1_7" function="internal">
        <lane id=":1_7_0" index="0" speed="13.89" length="20.00" width="3.00" shape="102.11,94.79 102.11,114.79"/>
    </edge>
    <edge id=":1_8" function="internal">
        <lane id=":1_8_0" index="0" speed="9.06" length="18.55" width="3.00" shape="102.11,94.79 101.39,99.82 99.23,103.42 95.64,105.57 90.61,106.29"/>
    </edge>
    <edge id=":1_9" function="internal">
        <lane id=":1_9_0" index="0" disallow="pedestrian tram rail_urban rail rail_electric rail_fast ship" speed="7.79" length="13.31" width="3.50" shape="90.61,103.04 94.22,102.52 96.80,100.98 98.34,98.40 98.86,94.79"/>
    </edge>
    <edge id=":1_10" function="internal">
        <lane id=":1_10_0" index="0" disallow="pedestrian tram rail_urban rail rail_electric rail_fast ship" speed="13.89" length="20.00" width="3.00" shape="90.61,103.04 110.61,103.29"/>
    </edge>
    <edge id=":1_11" function="internal">
        <lane id=":1_11_0" index="0" disallow="pedestrian tram rail_urban rail rail_electric rail_fast ship" speed="9.14" length="5.31" width="3.00" shape="90.61,103.04 95.64,103.77 95.83,103.89"/>
    </edge>
    <edge id=":1_13" function="internal">
        <lane id=":1_13_0" index="0" disallow="pedestrian tram rail_urban rail rail_electric rail_fast ship" speed="9.14" length="13.44" width="3.00" shape="95.83,103.89 99.24,105.98 101.39,109.65 102.11,114.79"/>
    </edge>
    <edge id=":183349848.end_0" function="internal">
        <lane id=":183349848.end_0_0" index="0" disallow="pedestrian tram rail_urban rail rail_electric rail_fast ship" speed="3.63" length="4.75" width="3.50" shape="127.33,248.09 128.79,248.23 129.53,248.75 129.56,249.66 128.87,250.95"/>
    </edge>
    <edge id=":183349849.begin_0" function="internal">
        <lane id=":183349849.begin_0_0" index="0" disallow="pedestrian tram rail_urban rail rail_electric rail_fast ship" speed="3.73" length="4.75" width="3.00" shape="342.15,83.08 342.43,84.52 342.15,85.38 341.29,85.67 339.85,85.38"/>
    </edge>
    <edge id=":183349851.end_0" function="internal">
        <lane id=":183349851.end_0_0" index="0" disallow="pedestrian tram rail_urban rail rail_electric rail_fast ship" speed="3.63" length="4.75" width="3.50" shape="250.05,161.05 250.34,162.49 250.05,163.35 249.19,163.63 247.75,163.35"/>
    </edge>
    <edge id=":183349852.end_0" function="internal">
        <lane id=":183349852.end_0_0" index="0" disallow="pedestrian tram rail_urban rail rail_electric rail_fast ship" speed="3.63" length="4.75" width="3.50" shape="133.35,235.12 133.22,236.58 132.70,237.33 131.79,237.36 130.49,236.68"/>
    </edge>

    <edge id="-183349848" from="1" to="183349848.end" priority="1" type="driving" shape="90.61,104.79 60.61,104.79 58.61,104.79 56.61,104.80 54.61,104.83 52.61,104.88 50.61,104.96 48.61,105.08 46.62,105.25 44.63,105.47 42.65,105.76 40.69,106.12 38.73,106.56 36.80,107.07 34.89,107.66 33.01,108.33 31.15,109.07 29.32,109.88 27.53,110.77 25.77,111.73 24.06,112.76 22.39,113.85 20.76,115.01 19.18,116.24 17.65,117.53 16.17,118.88 14.75,120.28 13.38,121.74 12.08,123.26 10.84,124.83 9.66,126.44 8.54,128.10 7.49,129.81 6.52,131.55 5.61,133.33 4.77,135.15 4.00,136.99 3.30,138.87 2.67,140.76 2.11,142.68 1.61,144.62 1.19,146.58 0.83,148.54 0.53,150.52 0.31,152.51 0.14,154.50 0.04,156.50 0.00,158.50 0.02,160.50 0.10,162.50 0.24,164.49 0.43,166.48 0.68,168.47 0.98,170.44 1.33,172.41 1.74,174.37 2.19,176.32 2.69,178.26 3.23,180.18 3.82,182.09 4.45,183.99 5.13,185.87 5.84,187.74 6.59,189.60 7.37,191.43 8.19,193.26 9.05,195.07 9.94,196.86 10.85,198.64 11.80,200.40 12.77,202.15 13.77,203.88 14.80,205.60 15.84,207.30 16.92,208.99 18.01,210.66 19.13,212.32 20.27,213.96 21.43,215.59 22.62,217.20 23.82,218.79 25.05,220.37 26.31,221.93 27.58,223.48 28.87,225.00 30.19,226.51 31.52,228.00 32.88,229.47 34.25,230.92 35.65,232.35 36.35,233.06 37.78,234.46 39.22,235.85 40.69,237.21 42.18,238.54 43.69,239.86 45.22,241.14 46.77,242.40 48.35,243.63 49.95,244.83 51.57,246.00 53.22,247.14 54.89,248.24 56.58,249.30 58.30,250.33 60.04,251.31 61.80,252.26 63.58,253.16 65.39,254.02 67.22,254.83 69.07,255.59 70.94,256.30 72.83,256.96 74.73,257.57 76.65,258.12 78.59,258.62 80.54,259.05 82.51,259.43 84.48,259.74 86.47,259.99 88.46,260.18 90.45,260.30 92.45,260.35 94.45,260.33 96.45,260.24 98.44,260.07 100.43,259.84 102.41,259.53 104.37,259.15 106.32,258.69 108.24,258.15 110.12,257.56 111.98,256.91 113.82,256.22 115.65,255.48 117.46,254.70 119.26,253.89 121.04,253.04 122.81,252.16 124.57,251.26 126.31,250.34 128.04,249.41">
        <lane id="-183349848_0" index="0" speed="13.89" length="303.22" width="3.00" shape="90.61,106.29 60.61,106.29 58.61,106.29 56.62,106.30 54.64,106.33 52.66,106.38 50.68,106.46 48.72,106.58 46.77,106.74 44.82,106.96 42.89,107.24 40.99,107.59 39.09,108.02 37.21,108.51 35.36,109.08 33.54,109.73 31.73,110.45 29.96,111.24 28.22,112.10 26.52,113.03 24.86,114.03 23.24,115.09 21.66,116.21 20.12,117.41 18.64,118.66 17.20,119.97 15.82,121.33 14.50,122.74 13.24,124.21 12.03,125.74 10.89,127.30 9.80,128.91 8.78,130.57 7.84,132.26 6.96,133.99 6.14,135.75 5.40,137.54 4.71,139.37 4.10,141.21 3.56,143.08 3.07,144.96 2.66,146.87 2.31,148.79 2.02,150.71 1.80,152.66 1.64,154.60 1.54,156.55 1.50,158.51 1.52,160.46 1.60,162.42 1.73,164.37 1.92,166.32 2.17,168.26 2.46,170.20 2.80,172.13 3.20,174.05 3.65,175.96 4.14,177.87 4.67,179.76 5.25,181.63 5.87,183.50 6.54,185.35 7.24,187.19 7.98,189.03 8.74,190.83 9.55,192.63 10.40,194.41 11.28,196.18 12.18,197.94 13.12,199.68 14.08,201.41 15.06,203.12 16.08,204.82 17.11,206.50 18.18,208.18 19.26,209.83 20.37,211.47 21.50,213.10 22.64,214.71 23.82,216.30 25.01,217.88 26.23,219.44 27.47,220.98 28.73,222.52 30.01,224.02 31.31,225.52 32.63,226.99 33.98,228.45 35.33,229.88 36.72,231.30 37.41,231.99 38.83,233.38 40.25,234.76 41.70,236.10 43.17,237.42 44.66,238.72 46.17,239.98 47.70,241.23 49.26,242.44 50.84,243.62 52.44,244.77 54.06,245.90 55.70,246.98 57.36,248.02 59.05,249.03 60.76,250.00 62.49,250.93 64.24,251.81 66.02,252.66 67.81,253.45 69.62,254.19 71.45,254.89 73.31,255.54 75.17,256.13 77.04,256.67 78.94,257.16 80.84,257.58 82.77,257.95 84.69,258.25 86.63,258.50 88.58,258.68 90.51,258.80 92.46,258.85 94.41,258.83 96.35,258.74 98.29,258.58 100.23,258.35 102.15,258.05 104.05,257.68 105.94,257.24 107.81,256.71 109.65,256.14 111.47,255.50 113.28,254.82 115.07,254.10 116.86,253.33 118.63,252.53 120.38,251.69 122.13,250.82 123.88,249.93 125.60,249.02 127.33,248.09" type="sidewalk"/>
    </edge>
    <edge id="-183349849" from="183349849.begin" to="1" priority="0" type="driving|sidewalk" shape="340.91,84.32 339.50,82.91 338.08,81.49 336.67,80.08 335.25,78.67 333.83,77.26 332.42,75.85 331.00,74.44 329.57,73.03 328.15,71.63 326.72,70.23 325.29,68.83 323.86,67.44 322.42,66.05 320.98,64.66 319.53,63.28 318.08,61.90 316.63,60.52 315.17,59.16 313.71,57.79 312.24,56.44 310.76,55.09 309.28,53.74 307.79,52.41 306.30,51.08 304.80,49.76 303.29,48.44 301.77,47.13 300.25,45.84 298.72,44.55 297.19,43.27 295.64,42.00 294.09,40.74 292.52,39.49 290.95,38.25 289.37,37.03 287.79,35.81 286.19,34.61 284.58,33.42 282.96,32.24 281.34,31.08 279.70,29.93 278.06,28.79 276.40,27.67 274.74,26.56 273.06,25.47 271.37,24.39 269.68,23.33 267.97,22.29 266.25,21.27 264.53,20.26 262.79,19.27 261.04,18.30 259.28,17.35 257.51,16.41 255.73,15.50 253.94,14.61 252.14,13.74 250.33,12.89 248.51,12.07 246.67,11.26 244.83,10.48 242.98,9.73 241.12,8.99 239.25,8.28 237.37,7.60 235.48,6.94 233.58,6.31 231.68,5.71 229.76,5.13 227.84,4.58 225.91,4.06 223.97,3.57 222.02,3.11 220.07,2.68 218.11,2.27 216.15,1.90 214.18,1.56 212.20,1.26 210.22,0.98 208.23,0.74 206.24,0.53 204.25,0.35 202.26,0.21 200.26,0.11 198.26,0.04 196.26,0.00 194.26,0.00 192.26,0.04 190.26,0.11 188.27,0.22 186.27,0.37 184.28,0.56 182.29,0.79 180.31,1.05 178.34,1.36 176.37,1.70 174.40,2.08 172.45,2.51 170.50,2.97 168.57,3.47 166.64,4.02 164.73,4.60 162.83,5.23 161.88,5.55 160.01,6.24 158.14,6.97 156.30,7.73 154.47,8.54 152.65,9.39 150.86,10.28 149.09,11.20 147.34,12.16 145.60,13.17 143.90,14.20 142.21,15.28 140.55,16.39 138.91,17.54 137.30,18.72 135.71,19.94 134.15,21.19 132.62,22.48 131.12,23.80 129.64,25.15 128.20,26.53 126.78,27.95 125.40,29.39 124.05,30.86 122.73,32.37 121.44,33.90 120.19,35.46 118.97,37.04 117.79,38.65 116.64,40.29 115.53,41.95 114.45,43.64 113.41,45.35 112.41,47.08 111.44,48.83 110.52,50.60 109.63,52.40 108.78,54.21 107.98,56.04 107.21,57.88 106.48,59.75 105.79,61.63 105.15,63.52 104.54,65.42 103.98,67.34 103.46,69.27 102.98,71.22 102.54,73.17 102.14,75.13 101.79,77.10 101.48,79.07 101.22,81.05 100.99,83.04 100.90,84.04 100.77,85.83 100.68,87.62 100.63,89.41 100.61,91.20 100.61,93.00 100.61,94.79">
        <lane id="-183349849_0" index="0" speed="13.89" length="319.22" width="3.00" shape="339.85,85.38 338.44,83.97 337.02,82.55 335.61,81.14 334.19,79.73 332.77,78.32 331.36,76.91 329.94,75.51 328.52,74.10 327.10,72.70 325.67,71.30 324.24,69.90 322.82,68.52 321.38,67.13 319.94,65.74 318.50,64.37 317.05,62.99 315.60,61.61 314.15,60.26 312.69,58.89 311.23,57.55 309.75,56.20 308.28,54.85 306.79,53.53 305.31,52.20 303.81,50.89 302.31,49.57 300.80,48.27 299.28,46.99 297.76,45.70 296.23,44.43 294.69,43.16 293.15,41.91 291.59,40.67 290.03,39.43 288.45,38.22 286.88,37.00 285.29,35.81 283.69,34.63 282.08,33.46 280.47,32.30 278.84,31.16 277.21,30.03 275.56,28.92 273.91,27.81 272.25,26.73 270.57,25.66 268.89,24.61 267.20,23.58 265.49,22.56 263.78,21.56 262.06,20.58 260.32,19.62 258.57,18.67 256.82,17.74 255.05,16.84 253.28,15.96 251.49,15.09 249.70,14.25 247.90,13.44 246.08,12.64 244.26,11.87 242.42,11.12 240.58,10.39 238.73,9.69 236.87,9.01 235.00,8.36 233.12,7.74 231.24,7.14 229.34,6.57 227.44,6.03 225.53,5.51 223.61,5.03 221.69,4.57 219.75,4.15 217.82,3.74 215.88,3.38 213.94,3.04 211.98,2.74 210.03,2.47 208.06,2.23 206.09,2.02 204.13,1.85 202.17,1.71 200.20,1.61 198.22,1.54 196.25,1.50 194.27,1.50 192.30,1.54 190.33,1.61 188.37,1.72 186.40,1.86 184.44,2.05 182.47,2.28 180.52,2.53 178.58,2.84 176.64,3.18 174.70,3.55 172.78,3.97 170.86,4.43 168.96,4.92 167.06,5.46 165.18,6.03 163.30,6.65 162.39,6.96 160.54,7.64 158.70,8.36 156.89,9.11 155.09,9.91 153.30,10.74 151.54,11.62 149.80,12.52 148.08,13.47 146.37,14.46 144.69,15.47 143.03,16.54 141.40,17.63 139.78,18.76 138.20,19.92 136.64,21.12 135.10,22.35 133.60,23.62 132.12,24.92 130.66,26.25 129.25,27.60 127.85,29.00 126.49,30.42 125.17,31.86 123.87,33.35 122.60,34.85 121.37,36.39 120.17,37.94 119.01,39.52 117.88,41.14 116.79,42.77 115.72,44.43 114.70,46.12 113.72,47.82 112.76,49.54 111.86,51.28 110.98,53.05 110.15,54.83 109.36,56.63 108.60,58.44 107.88,60.28 107.20,62.13 106.57,63.99 105.97,65.86 105.42,67.75 104.91,69.64 104.44,71.56 104.01,73.49 103.61,75.41 103.27,77.35 102.96,79.28 102.71,81.23 102.48,83.20 102.40,84.16 102.27,85.92 102.18,87.68 102.13,89.44 102.11,91.21 102.11,93.00 102.11,94.79"/>
    </edge>
    <edge id="-183349851#0" from="1" to="183349851.end" priority="1" type="driving|sidewalk" shape="110.61,104.79 111.61,104.79 126.61,104.79 160.61,104.79 162.61,104.82 164.60,104.90 166.60,105.03 168.59,105.22 170.58,105.46 172.56,105.75 174.53,106.09 176.49,106.49 178.43,106.94 180.37,107.44 182.29,107.99 184.20,108.60 186.09,109.25 187.96,109.96 189.81,110.71 191.64,111.51 193.45,112.37 195.24,113.27 197.00,114.21 198.74,115.21 200.45,116.25 202.13,117.33 203.78,118.46 205.40,119.63 206.98,120.85 208.54,122.11 210.06,123.41 211.55,124.74 213.00,126.12 213.64,126.75 248.99,162.11">
        <lane id="-183349851#0_0" index="0" speed="13.89" length="160.07" width="3.00" shape="110.61,103.29 111.61,103.29 126.61,103.29 160.61,103.29 162.65,103.32 164.68,103.40 166.72,103.53 168.75,103.73 170.78,103.97 172.80,104.27 174.81,104.62 176.81,105.02 178.79,105.48 180.76,105.99 182.72,106.55 184.67,107.18 186.60,107.84 188.51,108.56 190.39,109.33 192.26,110.15 194.11,111.02 195.93,111.94 197.73,112.90 199.50,113.92 201.25,114.98 202.96,116.08 204.64,117.23 206.30,118.43 207.91,119.67 209.50,120.96 211.05,122.28 212.57,123.64 214.04,125.04 214.70,125.69 250.05,161.05" type="sidewalk"/>
    </edge>
    <edge id="-183349852" from="1" to="183349852.end" priority="1" type="driving|sidewalk" shape="100.61,114.79 100.61,152.79 100.63,154.79 100.69,156.79 100.79,158.79 100.93,160.78 101.11,162.77 101.33,164.76 101.58,166.75 101.88,168.72 102.22,170.69 102.60,172.66 103.02,174.61 103.47,176.56 103.97,178.50 104.50,180.43 105.07,182.34 105.68,184.25 106.33,186.14 107.02,188.02 107.74,189.88 108.50,191.73 109.30,193.57 110.13,195.38 111.00,197.19 111.91,198.97 112.85,200.73 132.03,235.84">
        <lane id="-183349852_0" index="0" speed="13.89" length="127.25" width="3.00" shape="102.11,114.79 102.11,152.79 102.13,154.76 102.19,156.73 102.29,158.70 102.43,160.66 102.60,162.62 102.82,164.58 103.07,166.54 103.36,168.48 103.70,170.42 104.07,172.36 104.48,174.28 104.93,176.20 105.42,178.11 105.94,180.02 106.50,181.90 107.10,183.78 107.74,185.64 108.42,187.49 109.13,189.32 109.88,191.15 110.67,192.96 111.49,194.74 112.34,196.52 113.24,198.28 114.17,200.02 133.35,235.12" type="sidewalk"/>
    </edge>
    <edge id="183349848" from="183349848.end" to="1" priority="2" type="sidewalk|driving" shape="128.04,249.41 126.31,250.34 124.57,251.26 122.81,252.16 121.04,253.04 119.26,253.89 117.46,254.70 115.65,255.48 113.82,256.22 111.98,256.91 110.12,257.56 108.24,258.15 106.32,258.69 104.37,259.15 102.41,259.53 100.43,259.84 98.44,260.07 96.45,260.24 94.45,260.33 92.45,260.35 90.45,260.30 88.46,260.18 86.47,259.99 84.48,259.74 82.51,259.43 80.54,259.05 78.59,258.62 76.65,258.12 74.73,257.57 72.83,256.96 70.94,256.30 69.07,255.59 67.22,254.83 65.39,254.02 63.58,253.16 61.80,252.26 60.04,251.31 58.30,250.33 56.58,249.30 54.89,248.24 53.22,247.14 51.57,246.00 49.95,244.83 48.35,243.63 46.77,242.40 45.22,241.14 43.69,239.86 42.18,238.54 40.69,237.21 39.22,235.85 37.78,234.46 36.35,233.06 35.65,232.35 34.25,230.92 32.88,229.47 31.52,228.00 30.19,226.51 28.87,225.00 27.58,223.48 26.31,221.93 25.05,220.37 23.82,218.79 22.62,217.20 21.43,215.59 20.27,213.96 19.13,212.32 18.01,210.66 16.92,208.99 15.84,207.30 14.80,205.60 13.77,203.88 12.77,202.15 11.80,200.40 10.85,198.64 9.94,196.86 9.05,195.07 8.19,193.26 7.37,191.43 6.59,189.60 5.84,187.74 5.13,185.87 4.45,183.99 3.82,182.09 3.23,180.18 2.69,178.26 2.19,176.32 1.74,174.37 1.33,172.41 0.98,170.44 0.68,168.47 0.43,166.48 0.24,164.49 0.10,162.50 0.02,160.50 0.00,158.50 0.04,156.50 0.14,154.50 0.31,152.51 0.53,150.52 0.83,148.54 1.19,146.58 1.61,144.62 2.11,142.68 2.67,140.76 3.30,138.87 4.00,136.99 4.77,135.15 5.61,133.33 6.52,131.55 7.49,129.81 8.54,128.10 9.66,126.44 10.84,124.83 12.08,123.26 13.38,121.74 14.75,120.28 16.17,118.88 17.65,117.53 19.18,116.24 20.76,115.01 22.39,113.85 24.06,112.76 25.77,111.73 27.53,110.77 29.32,109.88 31.15,109.07 33.01,108.33 34.89,107.66 36.80,107.07 38.73,106.56 40.69,106.12 42.65,105.76 44.63,105.47 46.62,105.25 48.61,105.08 50.61,104.96 52.61,104.88 54.61,104.83 56.61,104.80 58.61,104.79 60.61,104.79 90.61,104.79">
        <lane id="183349848_0" index="0" disallow="pedestrian tram rail_urban rail rail_electric rail_fast ship" speed="13.89" length="315.04" width="3.50" shape="128.87,250.95 127.13,251.88 125.38,252.81 123.60,253.72 121.81,254.61 120.00,255.48 118.17,256.30 116.32,257.09 114.46,257.85 112.58,258.56 110.67,259.22 108.74,259.83 106.76,260.38 104.74,260.86 102.71,261.25 100.67,261.57 98.61,261.81 96.56,261.99 94.50,262.08 92.44,262.10 90.38,262.05 88.32,261.92 86.28,261.73 84.23,261.47 82.21,261.15 80.19,260.76 78.18,260.32 76.19,259.81 74.22,259.24 72.27,258.62 70.34,257.94 68.43,257.22 66.53,256.44 64.66,255.61 62.81,254.73 60.99,253.81 59.19,252.84 57.42,251.84 55.67,250.79 53.94,249.71 52.24,248.59 50.56,247.43 48.91,246.24 47.29,245.02 45.68,243.77 44.11,242.49 42.55,241.19 41.02,239.85 39.51,238.51 38.02,237.12 36.56,235.71 35.12,234.30 34.40,233.58 32.99,232.13 31.60,230.67 30.22,229.18 28.88,227.67 27.54,226.14 26.24,224.60 24.95,223.03 23.68,221.46 22.43,219.85 21.22,218.25 20.01,216.62 18.84,214.97 17.69,213.31 16.55,211.63 15.45,209.94 14.36,208.23 13.30,206.51 12.26,204.77 11.25,203.01 10.26,201.24 9.30,199.45 8.38,197.65 7.48,195.84 6.60,193.99 5.77,192.13 4.97,190.27 4.21,188.38 3.49,186.48 2.80,184.56 2.15,182.62 1.55,180.68 1.00,178.72 0.49,176.74 0.03,174.75 -0.39,172.74 -0.75,170.72 -1.05,168.71 -1.31,166.67 -1.50,164.63 -1.65,162.60 -1.73,160.54 -1.75,158.49 -1.71,156.44 -1.61,154.38 -1.43,152.34 -1.21,150.29 -0.90,148.25 -0.53,146.24 -0.09,144.22 0.42,142.22 1.00,140.24 1.65,138.29 2.37,136.35 3.17,134.45 4.04,132.56 4.98,130.73 5.98,128.93 7.07,127.15 8.23,125.43 9.45,123.77 10.73,122.15 12.08,120.57 13.50,119.06 14.97,117.61 16.50,116.21 18.08,114.88 19.71,113.61 21.40,112.40 23.13,111.28 24.90,110.21 26.72,109.22 28.58,108.30 30.47,107.46 32.39,106.69 34.34,106.00 36.32,105.39 38.31,104.86 40.34,104.41 42.37,104.03 44.41,103.73 46.45,103.51 48.48,103.33 50.52,103.21 52.55,103.13 54.58,103.08 56.59,103.05 58.61,103.04 60.61,103.04 90.61,103.04"/>
    </edge>
    <edge id="183349849" from="1" to="183349849.begin" priority="1" type="sidewalk|driving" shape="100.61,94.79 100.61,93.00 100.61,91.20 100.63,89.41 100.68,87.62 100.77,85.83 100.90,84.04 100.99,83.04 101.22,81.05 101.48,79.07 101.79,77.10 102.14,75.13 102.54,73.17 102.98,71.22 103.46,69.27 103.98,67.34 104.54,65.42 105.15,63.52 105.79,61.63 106.48,59.75 107.21,57.88 107.98,56.04 108.78,54.21 109.63,52.40 110.52,50.60 111.44,48.83 112.41,47.08 113.41,45.35 114.45,43.64 115.53,41.95 116.64,40.29 117.79,38.65 118.97,37.04 120.19,35.46 121.44,33.90 122.73,32.37 124.05,30.86 125.40,29.39 126.78,27.95 128.20,26.53 129.64,25.15 131.12,23.80 132.62,22.48 134.15,21.19 135.71,19.94 137.30,18.72 138.91,17.54 140.55,16.39 142.21,15.28 143.90,14.20 145.60,13.17 147.34,12.16 149.09,11.20 150.86,10.28 152.65,9.39 154.47,8.54 156.30,7.73 158.14,6.97 160.01,6.24 161.88,5.55 162.83,5.23 164.73,4.60 166.64,4.02 168.57,3.47 170.50,2.97 172.45,2.51 174.40,2.08 176.37,1.70 178.34,1.36 180.31,1.05 182.29,0.79 184.28,0.56 186.27,0.37 188.27,0.22 190.26,0.11 192.26,0.04 194.26,0.00 196.26,0.00 198.26,0.04 200.26,0.11 202.26,0.21 204.25,0.35 206.24,0.53 208.23,0.74 210.22,0.98 212.20,1.26 214.18,1.56 216.15,1.90 218.11,2.27 220.07,2.68 222.02,3.11 223.97,3.57 225.91,4.06 227.84,4.58 229.76,5.13 231.68,5.71 233.58,6.31 235.48,6.94 237.37,7.60 239.25,8.28 241.12,8.99 242.98,9.73 244.83,10.48 246.67,11.26 248.51,12.07 250.33,12.89 252.14,13.74 253.94,14.61 255.73,15.50 257.51,16.41 259.28,17.35 261.04,18.30 262.79,19.27 264.53,20.26 266.25,21.27 267.97,22.29 269.68,23.33 271.37,24.39 273.06,25.47 274.74,26.56 276.40,27.67 278.06,28.79 279.70,29.93 281.34,31.08 282.96,32.24 284.58,33.42 286.19,34.61 287.79,35.81 289.37,37.03 290.95,38.25 292.52,39.49 294.09,40.74 295.64,42.00 297.19,43.27 298.72,44.55 300.25,45.84 301.77,47.13 303.29,48.44 304.80,49.76 306.30,51.08 307.79,52.41 309.28,53.74 310.76,55.09 312.24,56.44 313.71,57.79 315.17,59.16 316.63,60.52 318.08,61.90 319.53,63.28 320.98,64.66 322.42,66.05 323.86,67.44 325.29,68.83 326.72,70.23 328.15,71.63 329.57,73.03 331.00,74.44 332.42,75.85 333.83,77.26 335.25,78.67 336.67,80.08 338.08,81.49 339.50,82.91 340.91,84.32">
        <lane id="183349849_0" index="0" disallow="pedestrian tram rail_urban rail rail_electric rail_fast ship" speed="13.89" length="326.88" width="3.50" shape="98.86,94.79 98.86,93.00 98.86,91.19 98.88,89.38 98.93,87.55 99.02,85.72 99.16,83.90 99.25,82.85 99.48,80.84 99.75,78.82 100.06,76.81 100.42,74.80 100.83,72.80 101.28,70.82 101.77,68.83 102.30,66.87 102.87,64.91 103.49,62.97 104.14,61.05 104.84,59.13 105.59,57.22 106.37,55.35 107.19,53.49 108.05,51.64 108.96,49.81 109.90,48.00 110.89,46.22 111.90,44.46 112.97,42.71 114.07,40.99 115.20,39.30 116.37,37.63 117.57,35.99 118.81,34.38 120.09,32.79 121.40,31.23 122.75,29.69 124.12,28.19 125.53,26.73 126.98,25.28 128.44,23.87 129.95,22.50 131.48,21.15 133.04,19.84 134.63,18.56 136.25,17.32 137.89,16.12 139.56,14.95 141.25,13.82 142.98,12.71 144.71,11.66 146.48,10.64 148.27,9.66 150.07,8.72 151.89,7.81 153.75,6.95 155.61,6.12 157.49,5.35 159.39,4.60 161.29,3.90 162.28,3.57 164.20,2.93 166.15,2.34 168.11,1.78 170.08,1.27 172.06,0.80 174.05,0.37 176.06,-0.02 178.06,-0.37 180.06,-0.68 182.08,-0.95 184.10,-1.18 186.12,-1.37 188.16,-1.53 190.18,-1.64 192.21,-1.71 194.24,-1.75 196.28,-1.75 198.31,-1.71 200.33,-1.64 202.37,-1.54 204.39,-1.39 206.41,-1.21 208.43,-1.00 210.45,-0.76 212.45,-0.47 214.46,-0.17 216.46,0.18 218.45,0.55 220.44,0.97 222.41,1.40 224.39,1.87 226.35,2.37 228.31,2.89 230.25,3.45 232.20,4.04 234.12,4.65 236.04,5.28 237.96,5.95 239.86,6.64 241.75,7.36 243.63,8.11 245.50,8.86 247.36,9.65 249.22,10.47 251.06,11.30 252.89,12.16 254.71,13.04 256.52,13.94 258.32,14.86 260.11,15.81 261.88,16.76 263.65,17.74 265.41,18.74 267.14,19.76 268.87,20.79 270.60,21.84 272.31,22.91 274.01,24.00 275.70,25.10 277.38,26.22 279.05,27.35 280.70,28.50 282.35,29.65 283.98,30.82 285.62,32.01 287.24,33.21 288.85,34.42 290.44,35.64 292.03,36.87 293.61,38.12 295.19,39.38 296.75,40.64 298.31,41.92 299.85,43.21 301.38,44.50 302.91,45.80 304.44,47.12 305.95,48.44 307.46,49.77 308.96,51.10 310.45,52.44 311.94,53.80 313.42,55.15 314.90,56.51 316.37,57.88 317.83,59.25 319.29,60.63 320.74,62.01 322.19,63.40 323.64,64.79 325.08,66.18 326.51,67.58 327.94,68.98 329.38,70.38 330.80,71.78 332.23,73.20 333.66,74.61 335.07,76.02 336.48,77.43 337.91,78.84 339.32,80.25 340.74,81.67 342.15,83.08" type="driving"/>
    </edge>
    <edge id="183349851#2" from="183349851.end" to="1" priority="2" type="sidewalk|driving" shape="248.99,162.11 213.64,126.75 213.00,126.12 211.55,124.74 210.06,123.41 208.54,122.11 206.98,120.85 205.40,119.63 203.78,118.46 202.13,117.33 200.45,116.25 198.74,115.21 197.00,114.21 195.24,113.27 193.45,112.37 191.64,111.51 189.81,110.71 187.96,109.96 186.09,109.25 184.20,108.60 182.29,107.99 180.37,107.44 178.43,106.94 176.49,106.49 174.53,106.09 172.56,105.75 170.58,105.46 168.59,105.22 166.60,105.03 164.60,104.90 162.61,104.82 160.61,104.79 126.61,104.79 111.61,104.79 110.61,104.79">
        <lane id="183349851#2_0" index="0" disallow="pedestrian tram rail_urban rail rail_electric rail_fast ship" speed="13.89" length="157.52" width="3.50" shape="247.75,163.35 212.40,127.99 211.79,127.38 210.36,126.03 208.91,124.73 207.42,123.46 205.90,122.22 204.35,121.03 202.77,119.89 201.16,118.79 199.52,117.73 197.85,116.72 196.15,115.74 194.43,114.82 192.68,113.94 190.91,113.10 189.13,112.32 187.32,111.59 185.49,110.90 183.65,110.26 181.78,109.66 179.91,109.13 178.01,108.64 176.12,108.20 174.21,107.81 172.28,107.48 170.35,107.19 168.40,106.96 166.46,106.77 164.51,106.65 162.56,106.57 160.60,106.54 126.61,106.54 111.61,106.54 110.61,106.54"/>
    </edge>
    <edge id="183349852" from="183349852.end" to="1" priority="0" type="sidewalk|driving" shape="132.03,235.84 112.85,200.73 111.91,198.97 111.00,197.19 110.13,195.38 109.30,193.57 108.50,191.73 107.74,189.88 107.02,188.02 106.33,186.14 105.68,184.25 105.07,182.34 104.50,180.43 103.97,178.50 103.47,176.56 103.02,174.61 102.60,172.66 102.22,170.69 101.88,168.72 101.58,166.75 101.33,164.76 101.11,162.77 100.93,160.78 100.79,158.79 100.69,156.79 100.63,154.79 100.61,152.79 100.61,114.79">
        <lane id="183349852_0" index="0" disallow="pedestrian tram rail_urban rail rail_electric rail_fast ship" speed="13.89" length="128.88" width="3.50" shape="130.49,236.68 111.31,201.57 110.36,199.78 109.43,197.97 108.55,196.12 107.70,194.28 106.89,192.41 106.11,190.53 105.38,188.64 104.68,186.73 104.02,184.80 103.40,182.86 102.82,180.91 102.28,178.95 101.77,176.98 101.31,174.99 100.89,173.01 100.50,171.00 100.15,169.00 99.85,166.99 99.59,164.97 99.37,162.94 99.19,160.92 99.04,158.90 98.94,156.86 98.88,154.82 98.86,152.80 98.86,114.79" type="driving"/>
    </edge>

    <tlLogic id="183349848.end" type="static" programID="0" offset="0">
        <phase duration="82" state="G"/>
        <phase duration="3"  state="y"/>
        <phase duration="5"  state="r"/>
    </tlLogic>
    <tlLogic id="183349852.end" type="static" programID="0" offset="0">
        <phase duration="82" state="G"/>
        <phase duration="3"  state="y"/>
        <phase duration="5"  state="r"/>
    </tlLogic>

    <junction id="1" type="traffic_light" x="100.61" y="104.79" incLanes="183349852_0 183349851#2_0 -183349849_0 183349848_0" intLanes=":1_0_0 :1_1_0 :1_2_0 :1_3_0 :1_4_0 :1_12_0 :1_6_0 :1_7_0 :1_8_0 :1_9_0 :1_10_0 :1_13_0" shape="97.11,114.79 103.61,114.79 104.39,111.18 105.36,109.92 106.72,109.01 108.47,108.47 110.61,108.29 110.61,101.79 108.47,101.60 106.72,101.01 105.36,100.04 104.39,98.68 103.80,96.93 103.61,94.79 97.11,94.79 96.39,98.40 95.48,99.66 94.22,100.57 92.60,101.11 90.61,101.29 90.61,107.79 94.22,108.57 95.48,109.54 96.39,110.90 96.93,112.65">
        <request index="0"  response="000000010000" foes="000100010000" cont="0"/>
        <request index="1"  response="111000110000" foes="111100110000" cont="0"/>
        <request index="2"  response="110011110000" foes="110011110000" cont="0"/>
        <request index="3"  response="000000000000" foes="100010000000" cont="0"/>
        <request index="4"  response="000000000000" foes="100110000111" cont="0"/>
        <request index="5"  response="011000000000" foes="011110000110" cont="1"/>
        <request index="6"  response="010000000000" foes="010000000100" cont="0"/>
        <request index="7"  response="110000111000" foes="110000111100" cont="0"/>
        <request index="8"  response="110000110011" foes="110000110011" cont="0"/>
        <request index="9"  response="000000000000" foes="000000100010" cont="0"/>
        <request index="10" response="000000000000" foes="000111100110" cont="0"/>
        <request index="11" response="000000011000" foes="000110011110" cont="1"/>
    </junction>
    <junction id="183349848.end" type="traffic_light" x="128.04" y="249.41" incLanes="-183349848_0" intLanes=":183349848.end_0_0" shape="128.04,249.41 126.62,246.77 128.04,249.41">
        <request index="0" response="0" foes="0" cont="0"/>
    </junction>
    <junction id="183349849.begin" type="priority" x="340.91" y="84.32" incLanes="183349849_0" intLanes=":183349849.begin_0_0" shape="340.91,84.32 343.38,81.85 340.91,84.32">
        <request index="0" response="0" foes="0" cont="0"/>
    </junction>