<?xml version="1.0" encoding="UTF-8"?>

<!-- generated on 2024-07-25 12:06:08 by Eclipse SUMO netconvert Version 1.18.0
<configuration xmlns:xsi="http://www.w3.org/2001/XMLSchema-instance" xsi:noNamespaceSchemaLocation="http://sumo.dlr.de/xsd/netconvertConfiguration.xsd">

    <input>
        <opendrive-files value="map.xodr"/>
    </input>

    <output>
        <output-file value="sumoexample.net.xml"/>
    </output>

    <junctions>
        <no-turnarounds.except-deadend value="true"/>
    </junctions>

</configuration>
-->

<net version="1.16" junctionCornerDetail="5" rectangularLaneCut="true" limitTurnSpeed="5.50" xmlns:xsi="http://www.w3.org/2001/XMLSchema-instance" xsi:noNamespaceSchemaLocation="http://sumo.dlr.de/xsd/net_file.xsd">

    <location netOffset="110.61,104.79" convBoundary="0.00,0.00,340.91,260.35" origBoundary="-110.61,-104.79,230.31,155.56" projParameter="!"/>

    <type id="driving" priority="1" speed="13.89" disallow="pedestrian tram rail_urban rail rail_electric rail_fast ship" width="3.65"/>

    <edge id=":1_0" function="internal">
        <lane id=":1_0_0" index="0" disallow="pedestrian tram rail_urban rail rail_electric rail_fast ship" speed="7.25" length="11.36" width="3.50" shape="98.86,115.29 98.34,112.78 96.79,110.98 94.22,109.90 90.61,109.54"/>
    </edge>
    <edge id=":1_1" function="internal">
        <lane id=":1_1_0" index="0" disallow="pedestrian tram rail_urban rail rail_electric rail_fast ship" speed="13.89" length="21.00" width="3.50" shape="98.86,115.29 98.86,94.29"/>
    </edge>
    <edge id=":1_2" function="internal">
        <lane id=":1_2_0" index="0" disallow="pedestrian tram rail_urban rail rail_electric rail_fast ship" speed="9.36" length="12.82" width="3.50" shape="98.86,115.29 99.75,110.31 102.11,105.36 103.61,103.65"/>
    </edge>
    <edge id=":1_12" function="internal">
        <lane id=":1_12_0" index="0" disallow="pedestrian tram rail_urban rail rail_electric rail_fast ship" speed="9.36" length="6.89" width="3.50" shape="103.61,103.65 105.44,101.56 109.26,100.04"/>
    </edge>
    <edge id=":1_3" function="internal">
        <lane id=":1_3_0" index="0" disallow="pedestrian tram rail_urban rail rail_electric rail_fast ship" speed="7.00" length="10.50" width="3.50" shape="109.26,106.54 107.55,107.09 106.33,108.73 105.60,111.46 105.36,115.29"/>
    </edge>
    <edge id=":1_4" function="internal">
        <lane id=":1_4_0" index="0" disallow="pedestrian tram rail_urban rail rail_electric rail_fast ship" speed="13.89" length="18.91" width="3.50" shape="109.26,106.54 104.94,107.01 99.93,108.04 94.93,109.07 90.61,109.54"/>
    </edge>
    <edge id=":1_5" function="internal">
        <lane id=":1_5_0" index="0" disallow="pedestrian tram rail_urban rail rail_electric rail_fast ship" speed="9.04" length="7.96" width="3.50" shape="109.26,106.54 104.71,105.78 101.97,103.84"/>
    </edge>
    <edge id=":1_13" function="internal">
        <lane id=":1_13_0" index="0" disallow="pedestrian tram rail_urban rail rail_electric rail_fast ship" speed="9.04" length="10.32" width="3.50" shape="101.97,103.84 101.46,103.48 99.51,99.65 98.86,94.29"/>
    </edge>
    <edge id=":1_6" function="internal">
        <lane id=":1_6_0" index="0" disallow="pedestrian tram rail_urban rail rail_electric rail_fast ship" speed="6.14" length="7.84" width="3.50" shape="105.36,94.29 105.60,96.81 106.33,98.60 107.55,99.68 109.26,100.04">
            <param key="signalID" value="1011"/>
        </lane>
    </edge>
    <edge id=":1_7" function="internal">
        <lane id=":1_7_0" index="0" disallow="pedestrian tram rail_urban rail rail_electric rail_fast ship" speed="13.89" length="21.00" width="3.50" shape="105.36,94.29 105.36,115.29">
            <param key="signalID" value="1011"/>
        </lane>
    </edge>
    <edge id=":1_8" function="internal">
        <lane id=":1_8_0" index="0" disallow="pedestrian tram rail_urban rail rail_electric rail_fast ship" speed="10.05" length="11.50" width="3.50" shape="105.36,94.29 104.05,99.66 100.63,104.57">
            <param key="signalID" value="1011"/>
        </lane>
    </edge>
    <edge id=":1_14" function="internal">
        <lane id=":1_14_0" index="0" disallow="pedestrian tram rail_urban rail rail_electric rail_fast ship" speed="10.05" length="11.41" width="3.50" shape="100.63,104.57 95.89,108.15 90.61,109.54">
            <param key="signalID" value="1011"/>
        </lane>
    </edge>
    <edge id=":1_9" function="internal">
        <lane id=":1_9_0" index="0" disallow="pedestrian tram rail_urban rail rail_electric rail_fast ship" speed="7.90" length="13.71" width="3.50" shape="90.61,103.04 94.22,102.49 96.80,100.85 98.34,98.12 98.86,94.29"/>
    </edge>
    <edge id=":1_10" function="internal">
        <lane id=":1_10_0" index="0" disallow="pedestrian tram rail_urban rail rail_electric rail_fast ship" speed="13.89" length="18.91" width="3.50" shape="90.61,103.04 94.93,102.57 99.93,101.54 104.94,100.51 109.26,100.04"/>
    </edge>
    <edge id=":1_11" function="internal">
        <lane id=":1_11_0" index="0" disallow="pedestrian tram rail_urban rail rail_electric rail_fast ship" speed="9.82" length="9.86" width="3.50" shape="90.61,103.04 97.06,103.81 100.07,105.31"/>
    </edge>
    <edge id=":1_15" function="internal">
        <lane id=":1_15_0" index="0" disallow="pedestrian tram rail_urban rail rail_electric rail_fast ship" speed="9.82" length="11.95" width="3.50" shape="100.07,105.31 101.67,106.10 104.43,109.93 105.36,115.29"/>
    </edge>
    <edge id=":183349848.end_0" function="internal">
        <lane id=":183349848.end_0_0" index="0" disallow="pedestrian tram rail_urban rail rail_electric rail_fast ship" speed="4.79" length="9.49" width="3.50" shape="125.78,245.23 128.70,245.50 130.19,246.54 130.25,248.36 128.88,250.95"/>
    </edge>
    <edge id=":183349849.begin_0" function="internal">
        <lane id=":183349849.begin_0_0" index="0" disallow="pedestrian tram rail_urban rail rail_electric rail_fast ship" speed="4.79" length="9.49" width="3.50" shape="342.15,83.08 342.72,85.95 342.15,87.68 340.43,88.25 337.55,87.68"/>
    </edge>
    <edge id=":183349851#1_0" function="internal">
        <lane id=":183349851#1_0_0" index="0" disallow="pedestrian tram rail_urban rail rail_electric rail_fast ship" speed="13.89" length="6.15" width="3.50" shape="115.61,106.54 109.46,106.54"/>
    </edge>
    <edge id=":183349851#1_1" function="internal">
        <lane id=":183349851#1_1_0" index="0" disallow="pedestrian tram rail_urban rail rail_electric rail_fast ship" speed="13.89" length="6.15" width="3.50" shape="109.46,100.04 115.61,100.04"/>
    </edge>
    <edge id=":183349851#2_0" function="internal">
        <lane id=":183349851#2_0_0" index="0" disallow="pedestrian tram rail_urban rail rail_electric rail_fast ship" speed="13.89" length="8.00" width="3.50" shape="130.61,106.54 122.61,106.54"/>
    </edge>
    <edge id=":183349851#2_1" function="internal">
        <lane id=":183349851#2_1_0" index="0" disallow="pedestrian tram rail_urban rail rail_electric rail_fast ship" speed="13.89" length="8.00" width="3.50" shape="122.61,100.04 130.61,100.04">
            <param key="signalID" value="1002"/>
        </lane>
    </edge>
    <edge id=":183349851.end_0" function="internal">
        <lane id=":183349851.end_0_0" index="0" disallow="pedestrian tram rail_urban rail rail_electric rail_fast ship" speed="4.79" length="9.49" width="3.50" shape="252.35,158.75 252.93,161.62 252.35,163.34 250.63,163.92 247.76,163.34"/>
    </edge>
    <edge id=":183349852.end_0" function="internal">
        <lane id=":183349852.end_0_0" index="0" disallow="pedestrian tram rail_urban rail rail_electric rail_fast ship" speed="4.79" length="9.49" width="3.50" shape="136.19,233.56 135.94,236.48 134.90,237.97 133.08,238.04 130.49,236.68"/>
    </edge>

    <edge id="-183349848" from="1" to="183349848.end" priority="1" type="driving" shape="90.61,107.79 60.61,107.79 58.61,107.79 56.63,107.80 54.66,107.83 52.71,107.87 50.76,107.95 48.83,108.07 46.92,108.23 45.02,108.45 43.14,108.72 41.28,109.06 39.45,109.47 37.63,109.95 35.83,110.51 34.06,111.14 32.32,111.83 30.60,112.60 28.91,113.43 27.26,114.33 25.65,115.30 24.08,116.33 22.55,117.42 21.06,118.57 19.63,119.78 18.24,121.05 16.90,122.37 15.62,123.75 14.39,125.17 13.22,126.64 12.11,128.16 11.07,129.72 10.08,131.33 9.16,132.97 8.31,134.64 7.52,136.35 6.79,138.10 6.13,139.86 5.53,141.66 5.00,143.48 4.53,145.31 4.13,147.16 3.79,149.03 3.51,150.91 3.29,152.80 3.13,154.70 3.04,156.60 3.00,158.51 3.02,160.42 3.10,162.33 3.23,164.24 3.41,166.15 3.65,168.05 3.94,169.95 4.28,171.84 4.67,173.73 5.10,175.60 5.58,177.47 6.11,179.33 6.68,181.18 7.29,183.01 7.94,184.83 8.63,186.64 9.36,188.44 10.12,190.23 10.92,192.00 11.75,193.76 12.61,195.51 13.51,197.24 14.43,198.96 15.38,200.67 16.36,202.36 17.36,204.04 18.39,205.71 19.44,207.36 20.51,209.00 21.60,210.63 22.72,212.23 23.86,213.83 25.02,215.41 26.20,216.97 27.41,218.51 28.63,220.04 29.88,221.55 31.15,223.04 32.43,224.52 33.74,225.98 35.07,227.42 36.42,228.84 37.79,230.25 38.47,230.93 39.87,232.31 41.28,233.66 42.71,234.99 44.16,236.30 45.64,237.58 47.13,238.83 48.64,240.05 50.17,241.25 51.72,242.42 53.30,243.55 54.89,244.65 56.51,245.71 58.15,246.74 59.81,247.73 61.49,248.69 63.18,249.60 64.90,250.47 66.64,251.29 68.40,252.07 70.18,252.80 71.97,253.48 73.78,254.12 75.60,254.70 77.44,255.23 79.29,255.70 81.15,256.12 83.02,256.47 84.91,256.77 86.79,257.01 88.69,257.19 90.58,257.30 92.48,257.35 94.37,257.33 96.26,257.24 98.15,257.09 100.02,256.87 101.89,256.58 103.74,256.21 105.57,255.78 107.39,255.27 109.18,254.71 110.96,254.09 112.73,253.42 114.49,252.71 116.25,251.96 117.99,251.17 119.73,250.34 121.46,249.48 123.18,248.60 124.90,247.70 126.62,246.77">
        <lane id="-183349848_0" index="0" disallow="pedestrian tram rail_urban rail rail_electric rail_fast ship" speed="13.89" length="291.40" width="3.50" shape="90.61,109.54 60.61,109.54 58.62,109.54 56.65,109.55 54.70,109.58 52.76,109.62 50.85,109.70 48.96,109.82 47.09,109.97 45.24,110.18 43.42,110.45 41.63,110.78 39.86,111.17 38.11,111.64 36.38,112.17 34.68,112.77 33.00,113.44 31.34,114.18 29.72,114.98 28.13,115.85 26.58,116.78 25.07,117.77 23.59,118.83 22.16,119.93 20.78,121.10 19.44,122.32 18.16,123.59 16.92,124.92 15.74,126.29 14.61,127.71 13.55,129.17 12.54,130.67 11.59,132.21 10.70,133.79 9.88,135.41 9.12,137.06 8.42,138.74 7.78,140.45 7.20,142.18 6.69,143.94 6.23,145.71 5.84,147.51 5.51,149.32 5.24,151.14 5.03,152.97 4.88,154.82 4.79,156.67 4.75,158.52 4.77,160.38 4.84,162.24 4.97,164.10 5.15,165.96 5.38,167.81 5.67,169.67 6.00,171.51 6.38,173.35 6.80,175.19 7.27,177.02 7.79,178.83 8.35,180.64 8.94,182.44 9.58,184.23 10.26,186.01 10.97,187.77 11.72,189.53 12.51,191.27 13.33,193.00 14.18,194.72 15.06,196.42 15.97,198.12 16.90,199.80 17.87,201.47 18.86,203.13 19.87,204.78 20.91,206.41 21.97,208.03 23.05,209.64 24.15,211.23 25.28,212.80 26.42,214.36 27.59,215.90 28.78,217.43 29.99,218.94 31.22,220.43 32.47,221.90 33.74,223.36 35.04,224.80 36.35,226.22 37.68,227.63 39.04,229.03 39.70,229.69 41.09,231.06 42.48,232.39 43.89,233.70 45.32,234.99 46.77,236.25 48.24,237.48 49.73,238.68 51.23,239.86 52.76,241.01 54.31,242.12 55.87,243.20 57.46,244.24 59.06,245.25 60.69,246.22 62.33,247.15 63.99,248.05 65.67,248.89 67.37,249.70 69.09,250.46 70.82,251.17 72.57,251.84 74.33,252.46 76.11,253.02 77.90,253.54 79.70,254.00 81.51,254.40 83.33,254.75 85.15,255.04 86.98,255.27 88.82,255.44 90.65,255.55 92.49,255.60 94.32,255.58 96.15,255.50 97.97,255.35 99.78,255.13 101.58,254.85 103.37,254.50 105.13,254.09 106.89,253.60 108.62,253.05 110.36,252.45 112.09,251.79 113.82,251.10 115.54,250.36 117.26,249.58 118.97,248.77 120.67,247.92 122.38,247.05 124.07,246.15 125.78,245.23" type="driving"/>
    </edge>
    <edge id="-183349849" from="183349849.begin" to="1" priority="0" type="driving" shape="338.79,86.44 337.38,85.03 335.96,83.61 334.55,82.20 333.13,80.79 331.72,79.38 330.30,77.98 328.89,76.57 327.47,75.17 326.04,73.77 324.62,72.37 323.20,70.98 321.77,69.59 320.34,68.20 318.90,66.82 317.46,65.45 316.02,64.08 314.57,62.71 313.12,61.35 311.67,60.00 310.21,58.65 308.74,57.31 307.27,55.97 305.79,54.64 304.31,53.32 302.82,52.01 301.32,50.71 299.82,49.41 298.31,48.13 296.80,46.85 295.27,45.58 293.74,44.32 292.20,43.08 290.66,41.84 289.10,40.62 287.54,39.40 285.97,38.20 284.39,37.01 282.80,35.84 281.21,34.67 279.60,33.52 277.99,32.39 276.36,31.27 274.73,30.16 273.09,29.07 271.43,27.99 269.77,26.93 268.10,25.89 266.42,24.86 264.73,23.85 263.03,22.86 261.32,21.88 259.60,20.93 257.87,19.99 256.13,19.08 254.38,18.18 252.62,17.30 250.85,16.45 249.07,15.62 247.28,14.81 245.49,14.02 243.68,13.25 241.87,12.51 240.04,11.79 238.21,11.10 236.37,10.43 234.52,9.78 232.66,9.17 230.79,8.58 228.92,8.01 227.04,7.47 225.15,6.97 223.25,6.49 221.35,6.03 219.45,5.61 217.53,5.22 215.61,4.86 213.69,4.52 211.76,4.22 209.83,3.96 207.90,3.72 205.96,3.51 204.02,3.34 202.07,3.21 200.13,3.10 198.18,3.03 196.24,3.00 194.29,3.00 192.35,3.04 190.40,3.11 188.46,3.22 186.53,3.36 184.59,3.55 182.66,3.77 180.74,4.02 178.82,4.32 176.91,4.65 175.01,5.02 173.11,5.43 171.23,5.88 169.35,6.37 167.49,6.89 165.64,7.46 163.78,8.07 162.90,8.38 161.07,9.05 159.26,9.75 157.48,10.49 155.71,11.27 153.96,12.09 152.22,12.95 150.51,13.85 148.81,14.78 147.14,15.75 145.48,16.75 143.85,17.79 142.24,18.87 140.66,19.98 139.10,21.12 137.56,22.30 136.05,23.51 134.57,24.76 133.12,26.03 131.69,27.34 130.29,28.68 128.93,30.04 127.59,31.44 126.28,32.87 125.00,34.32 123.76,35.80 122.55,37.31 121.37,38.84 120.22,40.40 119.11,41.99 118.04,43.60 117.00,45.23 115.99,46.88 115.02,48.55 114.09,50.25 113.19,51.96 112.33,53.70 111.51,55.45 110.73,57.22 109.99,59.01 109.28,60.81 108.62,62.63 107.99,64.46 107.41,66.30 106.86,68.16 106.36,70.02 105.90,71.90 105.47,73.79 105.09,75.69 104.75,77.59 104.45,79.50 104.19,81.42 103.98,83.36 103.89,84.28 103.76,86.01 103.68,87.73 103.63,89.47 103.61,91.22 103.61,93.00 103.61,94.79">
        <lane id="-183349849_0" index="0" disallow="pedestrian tram rail_urban rail rail_electric rail_fast ship" speed="13.89" length="311.07" width="3.50" shape="337.55,87.68 336.14,86.27 334.73,84.85 333.31,83.44 331.90,82.03 330.49,80.62 329.07,79.22 327.65,77.81 326.24,76.41 324.82,75.02 323.40,73.62 321.97,72.23 320.55,70.85 319.12,69.46 317.69,68.09 316.25,66.71 314.82,65.35 313.37,63.98 311.93,62.63 310.48,61.28 309.02,59.94 307.56,58.60 306.10,57.27 304.62,55.95 303.15,54.63 301.67,53.33 300.18,52.03 298.68,50.74 297.18,49.46 295.67,48.19 294.16,46.93 292.64,45.68 291.11,44.44 289.57,43.21 288.03,42.00 286.47,40.79 284.91,39.60 283.34,38.41 281.77,37.25 280.18,36.09 278.59,34.95 276.99,33.82 275.37,32.71 273.75,31.61 272.12,30.53 270.49,29.46 268.84,28.41 267.18,27.37 265.51,26.36 263.84,25.36 262.15,24.37 260.46,23.41 258.76,22.46 257.04,21.54 255.32,20.63 253.59,19.74 251.85,18.88 250.10,18.03 248.34,17.21 246.57,16.40 244.79,15.62 243.01,14.87 241.21,14.13 239.41,13.42 237.60,12.74 235.78,12.08 233.95,11.44 232.12,10.83 230.28,10.25 228.43,9.69 226.57,9.16 224.71,8.66 222.84,8.18 220.96,7.74 219.08,7.32 217.19,6.93 215.30,6.58 213.41,6.25 211.51,5.95 209.60,5.69 207.70,5.46 205.79,5.26 203.88,5.09 201.96,4.95 200.05,4.85 198.14,4.78 196.22,4.75 194.31,4.75 192.40,4.79 190.49,4.86 188.58,4.96 186.67,5.11 184.77,5.29 182.88,5.50 180.99,5.75 179.10,6.04 177.23,6.37 175.36,6.74 173.50,7.14 171.65,7.58 169.81,8.06 167.98,8.57 166.17,9.13 164.34,9.73 163.49,10.02 161.69,10.68 159.92,11.37 158.17,12.10 156.43,12.87 154.71,13.67 153.01,14.51 151.33,15.39 149.67,16.30 148.03,17.25 146.41,18.24 144.81,19.26 143.23,20.31 141.68,21.40 140.15,22.52 138.64,23.68 137.17,24.86 135.71,26.08 134.29,27.33 132.89,28.62 131.52,29.93 130.18,31.27 128.86,32.64 127.58,34.04 126.33,35.46 125.11,36.91 123.92,38.39 122.77,39.90 121.65,41.42 120.56,42.98 119.50,44.55 118.48,46.15 117.49,47.77 116.54,49.41 115.63,51.08 114.75,52.76 113.91,54.46 113.11,56.18 112.34,57.91 111.61,59.66 110.92,61.43 110.27,63.21 109.66,65.00 109.08,66.81 108.55,68.63 108.05,70.46 107.60,72.30 107.18,74.16 106.81,76.01 106.48,77.88 106.18,79.76 105.93,81.64 105.72,83.55 105.63,84.43 105.51,86.12 105.43,87.79 105.38,89.50 105.36,91.24 105.36,93.00 105.36,94.29" type="driving"/>
    </edge>
    <edge id="-183349851#0" from="1" to="183349851#1" priority="1" type="driving" shape="110.61,101.79 111.61,101.79">
        <lane id="-183349851#0_0" index="0" disallow="pedestrian tram rail_urban rail rail_electric rail_fast ship" speed="13.89" length="0.20" width="3.50" shape="109.26,100.04 109.46,100.04" type="driving"/>
    </edge>
    <edge id="-183349851#1" from="183349851#1" to="183349851#2" priority="1" type="driving" shape="111.61,101.79 126.61,101.79">
        <lane id="-183349851#1_0" index="0" disallow="pedestrian tram rail_urban rail rail_electric rail_fast ship" speed="13.89" length="7.00" width="3.50" shape="115.61,100.04 122.61,100.04" type="driving"/>
    </edge>
    <edge id="-183349851#2" from="183349851#2" to="183349851.end" priority="1" type="driving" shape="126.61,101.79 160.61,101.79 162.69,101.82 164.76,101.90 166.84,102.04 168.91,102.23 170.98,102.48 173.03,102.79 175.08,103.15 177.12,103.56 179.15,104.03 181.16,104.55 183.16,105.12 185.14,105.75 187.11,106.43 189.05,107.16 190.98,107.95 192.89,108.78 194.77,109.67 196.63,110.60 198.46,111.59 200.26,112.62 202.04,113.70 203.79,114.83 205.50,116.01 207.19,117.23 208.84,118.49 210.46,119.80 212.04,121.15 213.58,122.54 215.08,123.96 215.75,124.63 251.11,159.99">
        <lane id="-183349851#2_0" index="0" disallow="pedestrian tram rail_urban rail rail_electric rail_fast ship" speed="13.89" length="142.63" width="3.50" shape="130.61,100.04 160.61,100.04 162.73,100.07 164.86,100.15 166.98,100.30 169.10,100.49 171.21,100.75 173.31,101.06 175.41,101.43 177.49,101.85 179.56,102.33 181.62,102.86 183.67,103.45 185.69,104.09 187.70,104.78 189.69,105.53 191.66,106.34 193.61,107.19 195.53,108.10 197.43,109.05 199.31,110.06 201.15,111.12 202.97,112.22 204.76,113.38 206.51,114.58 208.23,115.82 209.92,117.12 211.58,118.45 213.19,119.83 214.77,121.26 216.29,122.70 216.98,123.38 252.35,158.75" type="driving"/>
    </edge>
    <edge id="-183349852" from="1" to="183349852.end" priority="1" type="driving" shape="103.61,114.79 103.61,152.79 103.63,154.73 103.68,156.67 103.78,158.61 103.92,160.54 104.09,162.47 104.30,164.40 104.56,166.33 104.85,168.24 105.17,170.16 105.54,172.06 105.94,173.96 106.39,175.85 106.87,177.73 107.38,179.60 107.94,181.46 108.53,183.30 109.16,185.14 109.82,186.96 110.53,188.77 111.26,190.56 112.04,192.34 112.85,194.11 113.69,195.85 114.57,197.58 115.49,199.31 134.66,234.40">
        <lane id="-183349852_0" index="0" disallow="pedestrian tram rail_urban rail rail_electric rail_fast ship" speed="13.89" length="125.12" width="3.50" shape="105.36,115.29 105.36,152.79 105.38,154.70 105.43,156.60 105.53,158.50 105.66,160.40 105.83,162.30 106.04,164.19 106.29,166.08 106.57,167.97 106.90,169.84 107.26,171.71 107.65,173.58 108.09,175.43 108.56,177.28 109.07,179.11 109.61,180.94 110.19,182.75 110.81,184.56 111.46,186.34 112.15,188.12 112.88,189.88 113.63,191.63 114.43,193.36 115.26,195.08 116.12,196.77 117.03,198.48 136.19,233.56" type="driving"/>
    </edge>
    <edge id="183349848" from="183349848.end" to="1" priority="2" type="driving" shape="128.04,249.41 126.31,250.34 124.57,251.26 122.81,252.16 121.04,253.04 119.26,253.89 117.46,254.70 115.65,255.48 113.82,256.22 111.98,256.91 110.12,257.56 108.24,258.15 106.32,258.69 104.37,259.15 102.41,259.53 100.43,259.84 98.44,260.07 96.45,260.24 94.45,260.33 92.45,260.35 90.45,260.30 88.46,260.18 86.47,259.99 84.48,259.74 82.51,259.43 80.54,259.05 78.59,258.62 76.65,258.12 74.73,257.57 72.83,256.96 70.94,256.30 69.07,255.59 67.22,254.83 65.39,254.02 63.58,253.16 61.80,252.26 60.04,251.31 58.30,250.33 56.58,249.30 54.89,248.24 53.22,247.14 51.57,246.00 49.95,244.83 48.35,243.63 46.77,242.40 45.22,241.14 43.69,239.86 42.18,238.54 40.69,237.21 39.22,235.85 37.78,234.46 36.35,233.06 35.65,232.35 34.25,230.92 32.88,229.47 31.52,228.00 30.19,226.51 28.87,225.00 27.58,223.48 26.31,221.93 25.05,220.37 23.82,218.79 22.62,217.20 21.43,215.59 20.27,213.96 19.13,212.32 18.01,210.66 16.92,208.99 15.84,207.30 14.80,205.60 13.77,203.88 12.77,202.15 11.80,200.40 10.85,198.64 9.94,196.86 9.05,195.07 8.19,193.26 7.37,191.43 6.59,189.60 5.84,187.74 5.13,185.87 4.45,183.99 3.82,182.09 3.23,180.18 2.69,178.26 2.19,176.32 1.74,174.37 1.33,172.41 0.98,170.44 0.68,168.47 0.43,166.48 0.24,164.49 0.10,162.50 0.02,160.50 0.00,158.50 0.04,156.50 0.14,154.50 0.31,152.51 0.53,150.52 0.83,148.54 1.19,146.58 1.61,144.62 2.11,142.68 2.67,140.76 3.30,138.87 4.00,136.99 4.77,135.15 5.61,133.33 6.52,131.55 7.49,129.81 8.54,128.10 9.66,126.44 10.84,124.83 12.08,123.26 13.38,121.74 14.75,120.28 16.17,118.88 17.65,117.53 19.18,116.24 20.76,115.01 22.39,113.85 24.06,112.76 25.77,111.73 27.53,110.77 29.32,109.88 31.15,109.07 33.01,108.33 34.89,107.66 36.80,107.07 38.73,106.56 40.69,106.12 42.65,105.76 44.63,105.47 46.62,105.25 48.61,105.08 50.61,104.96 52.61,104.88 54.61,104.83 56.61,104.80 58.61,104.79 60.61,104.79 90.61,104.79">
        <lane id="183349848_0" index="0" disallow="pedestrian tram rail_urban rail rail_electric rail_fast ship" speed="13.89" length="315.04" width="3.50" shape="128.88,250.95 127.14,251.89 125.37,252.82 123.60,253.73 121.80,254.61 119.99,255.47 118.17,256.30 116.32,257.10 114.46,257.85 112.57,258.56 110.67,259.22 108.74,259.83 106.75,260.38 104.74,260.86 102.71,261.25 100.67,261.57 98.62,261.82 96.56,261.98 94.50,262.08 92.44,262.10 90.38,262.04 88.33,261.92 86.28,261.73 84.24,261.48 82.21,261.15 80.19,260.77 78.18,260.32 76.20,259.81 74.22,259.25 72.27,258.62 70.34,257.95 68.42,257.22 66.53,256.44 64.66,255.61 62.82,254.73 60.99,253.81 59.19,252.85 57.42,251.84 55.67,250.79 53.94,249.71 52.24,248.59 50.56,247.43 48.91,246.24 47.28,245.02 45.68,243.77 44.10,242.49 42.55,241.19 41.02,239.85 39.51,238.50 38.02,237.12 36.56,235.72 35.12,234.30 34.40,233.58 32.99,232.13 31.60,230.66 30.23,229.17 28.88,227.67 27.54,226.14 26.24,224.60 24.95,223.04 23.68,221.46 22.44,219.86 21.21,218.25 20.02,216.62 18.84,214.97 17.68,213.31 16.55,211.63 15.44,209.94 14.36,208.23 13.30,206.50 12.26,204.76 11.25,203.01 10.26,201.24 9.30,199.45 8.37,197.65 7.47,195.83 6.61,193.99 5.77,192.14 4.97,190.27 4.21,188.38 3.48,186.48 2.80,184.56 2.16,182.62 1.56,180.68 1.00,178.71 0.49,176.74 0.03,174.74 -0.38,172.74 -0.75,170.73 -1.05,168.71 -1.31,166.67 -1.51,164.64 -1.65,162.59 -1.73,160.54 -1.75,158.49 -1.71,156.44 -1.60,154.38 -1.44,152.34 -1.20,150.29 -0.90,148.26 -0.53,146.23 -0.09,144.22 0.42,142.22 1.00,140.24 1.65,138.28 2.37,136.35 3.17,134.44 4.03,132.57 4.97,130.72 5.99,128.92 7.07,127.16 8.22,125.44 9.44,123.77 10.73,122.15 12.08,120.58 13.49,119.06 14.97,117.61 16.49,116.21 18.08,114.88 19.71,113.61 21.40,112.41 23.13,111.27 24.91,110.21 26.72,109.22 28.58,108.30 30.47,107.46 32.39,106.69 34.34,106.00 36.32,105.39 38.32,104.86 40.34,104.41 42.37,104.03 44.41,103.74 46.45,103.51 48.49,103.33 50.52,103.21 52.55,103.13 54.57,103.08 56.59,103.05 58.60,103.04 60.61,103.04 90.61,103.04" type="driving"/>
    </edge>
    <edge id="183349849" from="1" to="183349849.begin" priority="1" type="driving" shape="100.61,94.79 100.61,93.00 100.61,91.20 100.63,89.41 100.68,87.62 100.77,85.83 100.90,84.04 100.99,83.04 101.22,81.05 101.48,79.07 101.79,77.10 102.14,75.13 102.54,73.17 102.98,71.22 103.46,69.27 103.98,67.34 104.54,65.42 105.15,63.52 105.79,61.63 106.48,59.75 107.21,57.88 107.98,56.04 108.78,54.21 109.63,52.40 110.52,50.60 111.44,48.83 112.41,47.08 113.41,45.35 114.45,43.64 115.53,41.95 116.64,40.29 117.79,38.65 118.97,37.04 120.19,35.46 121.44,33.90 122.73,32.37 124.05,30.86 125.40,29.39 126.78,27.95 128.20,26.53 129.64,25.15 131.12,23.80 132.62,22.48 134.15,21.19 135.71,19.94 137.30,18.72 138.91,17.54 140.55,16.39 142.21,15.28 143.90,14.20 145.60,13.17 147.34,12.16 149.09,11.20 150.86,10.28 152.65,9.39 154.47,8.54 156.30,7.73 158.14,6.97 160.01,6.24 161.88,5.55 162.83,5.23 164.73,4.60 166.64,4.02 168.57,3.47 170.50,2.97 172.45,2.51 174.40,2.08 176.37,1.70 178.34,1.36 180.31,1.05 182.29,0.79 184.28,0.56 186.27,0.37 188.27,0.22 190.26,0.11 192.26,0.04 194.26,0.00 196.26,0.00 198.26,0.04 200.26,0.11 202.26,0.21 204.25,0.35 206.24,0.53 208.23,0.74 210.22,0.98 212.20,1.26 214.18,1.56 216.15,1.90 218.11,2.27 220.07,2.68 222.02,3.11 223.97,3.57 225.91,4.06 227.84,4.58 229.76,5.13 231.68,5.71 233.58,6.31 235.48,6.94 237.37,7.60 239.25,8.28 241.12,8.99 242.98,9.73 244.83,10.48 246.67,11.26 248.51,12.07 250.33,12.89 252.14,13.74 253.94,14.61 255.73,15.50 257.51,16.41 259.28,17.35 261.04,18.30 262.79,19.27 264.53,20.26 266.25,21.27 267.97,22.29 269.68,23.33 271.37,24.39 273.06,25.47 274.74,26.56 276.40,27.67 278.06,28.79 279.70,29.93 281.34,31.08 282.96,32.24 284.58,33.42 286.19,34.61 287.79,35.81 289.37,37.03 290.95,38.25 292.52,39.49 294.09,40.74 295.64,42.00 297.19,43.27 298.72,44.55 300.25,45.84 301.77,47.13 303.29,48.44 304.80,49.76 306.30,51.08 307.79,52.41 309.28,53.74 310.76,55.09 312.24,56.44 313.71,57.79 315.17,59.16 316.63,60.52 318.08,61.90 319.53,63.28 320.98,64.66 322.42,66.05 323.86,67.44 325.29,68.83 326.72,70.23 328.15,71.63 329.57,73.03 331.00,74.44 332.42,75.85 333.83,77.26 335.25,78.67 336.67,80.08 338.08,81.49 339.50,82.91 340.91,84.32">
        <lane id="183349849_0" index="0" disallow="pedestrian tram rail_urban rail rail_electric rail_fast ship" speed="13.89" length="326.38" width="3.50" shape="98.86,94.29 98.86,93.00 98.86,91.19 98.88,89.37 98.93,87.55 99.02,85.72 99.15,83.89 99.25,82.86 99.48,80.84 99.75,78.82 100.07,76.81 100.42,74.80 100.83,72.80 101.27,70.81 101.76,68.84 102.29,66.87 102.87,64.91 103.48,62.97 104.14,61.04 104.84,59.13 105.58,57.23 106.37,55.35 107.19,53.48 108.05,51.64 108.96,49.81 109.90,48.00 110.88,46.22 111.90,44.46 112.96,42.71 114.06,41.00 115.19,39.30 116.36,37.63 117.57,35.99 118.81,34.38 120.09,32.79 121.40,31.23 122.74,29.69 124.12,28.19 125.53,26.72 126.97,25.28 128.45,23.87 129.95,22.49 131.48,21.15 133.04,19.84 134.63,18.56 136.25,17.32 137.89,16.12 139.56,14.95 141.25,13.81 142.97,12.72 144.71,11.66 146.48,10.64 148.26,9.66 150.07,8.72 151.90,7.81 153.74,6.95 155.61,6.13 157.49,5.34 159.39,4.60 161.29,3.91 162.27,3.57 164.20,2.93 166.15,2.34 168.11,1.78 170.08,1.27 172.06,0.80 174.05,0.37 176.05,-0.02 178.05,-0.37 180.06,-0.68 182.08,-0.95 184.10,-1.18 186.13,-1.37 188.15,-1.52 190.18,-1.64 192.21,-1.71 194.25,-1.75 196.28,-1.75 198.31,-1.71 200.34,-1.64 202.37,-1.53 204.39,-1.39 206.41,-1.21 208.43,-1.00 210.45,-0.76 212.46,-0.48 214.46,-0.16 216.46,0.18 218.45,0.56 220.44,0.97 222.42,1.40 224.39,1.87 226.35,2.37 228.31,2.90 230.26,3.45 232.19,4.04 234.12,4.65 236.05,5.29 237.96,5.95 239.86,6.64 241.75,7.36 243.63,8.10 245.51,8.87 247.37,9.66 249.22,10.47 251.06,11.30 252.89,12.16 254.71,13.04 256.52,13.94 258.32,14.86 260.10,15.80 261.88,16.76 263.65,17.74 265.40,18.74 267.14,19.76 268.88,20.79 270.60,21.84 272.31,22.91 274.01,24.00 275.70,25.10 277.38,26.21 279.04,27.34 280.70,28.49 282.35,29.65 283.99,30.82 285.62,32.01 287.23,33.21 288.84,34.42 290.44,35.64 292.03,36.88 293.61,38.12 295.18,39.38 296.75,40.64 298.30,41.92 299.85,43.21 301.38,44.50 302.91,45.81 304.44,47.12 305.95,48.44 307.46,49.77 308.96,51.10 310.45,52.45 311.94,53.79 313.42,55.15 314.89,56.51 316.36,57.88 317.83,59.25 319.29,60.63 320.74,62.01 322.19,63.40 323.63,64.79 325.07,66.18 326.51,67.58 327.94,68.98 329.37,70.38 330.80,71.79 332.23,73.19 333.65,74.60 335.07,76.01 336.49,77.43 337.90,78.84 339.32,80.25 340.74,81.67 342.15,83.08" type="driving"/>
    </edge>
    <edge id="183349851#0" from="183349851#1" to="1" priority="2" type="driving" shape="111.61,104.79 110.61,104.79">
        <lane id="183349851#0_0" index="0" disallow="pedestrian tram rail_urban rail rail_electric rail_fast ship" speed="13.89" length="0.20" width="3.50" shape="109.46,106.54 109.26,106.54" type="driving"/>
    </edge>
    <edge id="183349851#1" from="183349851#2" to="183349851#1" priority="2" type="driving">
        <lane id="183349851#1_0" index="0" disallow="pedestrian tram rail_urban rail rail_electric rail_fast ship" speed="13.89" length="7.00" width="4.00" shape="122.61,110.29 115.61,110.29" type="driving"/>
        <lane id="183349851#1_1" index="1" disallow="pedestrian tram rail_urban rail rail_electric rail_fast ship" speed="13.89" length="7.00" width="3.50" shape="122.61,106.54 115.61,106.54" type="driving"/>
    </edge>
    <edge id="183349851#2" from="183349851.end" to="183349851#2" priority="2" type="driving" shape="248.99,162.11 213.64,126.75 213.00,126.12 211.55,124.74 210.06,123.41 208.54,122.11 206.98,120.85 205.40,119.63 203.78,118.46 202.13,117.33 200.45,116.25 198.74,115.21 197.00,114.21 195.24,113.27 193.45,112.37 191.64,111.51 189.81,110.71 187.96,109.96 186.09,109.25 184.20,108.60 182.29,107.99 180.37,107.44 178.43,106.94 176.49,106.49 174.53,106.09 172.56,105.75 170.58,105.46 168.59,105.22 166.60,105.03 164.60,104.90 162.61,104.82 160.61,104.79 126.61,104.79">
        <lane id="183349851#2_0" index="0" disallow="pedestrian tram rail_urban rail rail_electric rail_fast ship" speed="13.89" length="137.52" width="3.50" shape="247.76,163.34 212.40,127.99 211.78,127.38 210.36,126.03 208.91,124.72 207.42,123.45 205.90,122.22 204.35,121.04 202.77,119.89 201.16,118.79 199.52,117.73 197.85,116.71 196.15,115.74 194.43,114.82 192.69,113.94 190.92,113.11 189.13,112.32 187.32,111.59 185.49,110.90 183.65,110.26 181.79,109.67 179.91,109.13 178.02,108.64 176.11,108.20 174.20,107.81 172.28,107.48 170.34,107.19 168.40,106.96 166.46,106.77 164.51,106.64 162.56,106.57 160.59,106.54 130.61,106.54" type="driving"/>
    </edge>