<routes>
	<vType accel="1" decel="4.5" id="Car0" length="5.1" width="2" maxSpeed="50.0" sigma="0.0"/>
	<vType accel="1" decel="4.5" id="Car1" length="5.9" width="2" maxSpeed="50.0" sigma="0.0"/>
	<vType accel="1" decel="4.5" id="Car2" length="5.7" width="2" maxSpeed="50.0" sigma="0.0"/>
	<vType accel="1" decel="4.5" id="Car3" length="4.5" width="2" maxSpeed="50.0" sigma="0.0"/>
	<vType accel="1" decel="4.5" id="Car4" length="4.3" width="1.9" maxSpeed="50.0" sigma="0.0"/>
	<vType accel="1" decel="4.5" id="Car5" length="4.1" width="1.8" maxSpeed="50.0" sigma="0.0"/>
	<vType accel="1" decel="4.5" id="Car6" length="3.9" width="1.7" maxSpeed="50.0" sigma="0.0"/>
	<vType accel="1" decel="4.5" id="Car7" length="3.7" width="1.6" maxSpeed="50.0" sigma="0.0"/>
	<vType accel="1" decel="4.5" id="Car8" length="3.5" width="1.5" maxSpeed="50.0" sigma="0.0"/>
	<vType accel="0.8" decel="4.5" id="Truck0" length="10" width="3" maxSpeed="50.0" sigma="0.0"/>
	<vTypeDistribution id="Car" vTypes="Truck0 Car0 Car1 Car2 Car3 Car4 Car5 Car6 Car7 Car8" probabilities="0.1 0.1 0.1 0.1 0.1 0.1 0.1 0.1 0.1 0.1"/>

	<vType accel="0.8" decel="4.5" id="CarEgo" length="4.0" maxSpeed="50.0" sigma="0.0"/>

	<route id="down2up" edges="-183349849 -183349852"/>
	<route id="up2down" edges="183349852 183349849"/>
	<route id="right2left" edges="183349851#2 -183349848"/>
	<route id="left2right" edges="183349848 -183349851#0"/>
	<route id="up2right" edges="183349852 -183349851#0"/>

	<flow id="flow1" begin="0" end="30" number="3" route="down2up" type="Car"/>
	<flow id="flow2" begin="0" end="60" number="2" route="up2down" type="Car"/>
	<flow id="flow3" begin="0" end="30" number="3" route="right2left" type="Car"/>
	<flow id="flow4" begin="0" end="30" number="3" route="left2right" type="Car"/>

	<vehicle depart="10" id="1337" route="up2right" type="CarEgo"/>
</routes>
