<?xml version="1.0" encoding="UTF-8"?>

<!-- generated on 2024-08-09 16:14:12 by Eclipse SUMO netedit Version 1.20.0
<configuration xmlns:xsi="http://www.w3.org/2001/XMLSchema-instance" xsi:noNamespaceSchemaLocation="http://sumo.dlr.de/xsd/neteditConfiguration.xsd">

    <input>
        <sumo-net-file value="sumoexample.xodr"/>
    </input>

    <output>
        <output-file value="sumoexample.net.xml"/>
    </output>

    <processing>
        <geometry.min-radius.fix.railways value="false"/>
        <geometry.max-grade.fix value="false"/>
        <offset.disable-normalization value="true"/>
        <lefthand value="0"/>
    </processing>

    <junctions>
        <no-turnarounds value="true"/>
        <junctions.corner-detail value="5"/>
        <junctions.limit-turn-speed value="5.50"/>
        <rectangular-lane-cut value="1"/>
    </junctions>

    <pedestrian>
        <walkingareas value="0"/>
    </pedestrian>

</configuration>
-->

<net version="1.20" junctionCornerDetail="5" rectangularLaneCut="true" limitTurnSpeed="5.50" xmlns:xsi="http://www.w3.org/2001/XMLSchema-instance" xsi:noNamespaceSchemaLocation="http://sumo.dlr.de/xsd/net_file.xsd">

    <location netOffset="0.00,0.00" convBoundary="-110.61,-104.79,230.31,155.56" origBoundary="-110.61,-104.79,230.31,155.56" projParameter="!"/>

    <edge id=":1_0" function="internal">
        <lane id=":1_0_0" index="0" disallow="pedestrian tram rail_urban rail rail_electric rail_fast ship container cable_car subway aircraft wheelchair scooter drone" speed="7.85" length="13.51" width="3.00" shape="-11.75,10.00 -12.27,6.28 -13.81,3.62 -16.39,2.03 -20.00,1.50"/>
    </edge>
    <edge id=":1_1" function="internal">
        <lane id=":1_1_0" index="0" disallow="pedestrian tram rail_urban rail rail_electric rail_fast ship container cable_car subway aircraft wheelchair scooter drone" speed="13.89" length="20.00" width="3.50" shape="-11.75,10.00 -11.75,-10.00"/>
    </edge>
    <edge id=":1_2" function="internal">
        <lane id=":1_2_0" index="0" disallow="pedestrian tram rail_urban rail rail_electric rail_fast ship container cable_car subway aircraft wheelchair scooter drone" speed="9.14" length="5.19" width="3.00" shape="-11.75,10.00 -11.02,4.97 -10.96,4.88"/>
    </edge>
    <edge id=":1_12" function="internal">
        <lane id=":1_12_0" index="0" disallow="pedestrian tram rail_urban rail rail_electric rail_fast ship container cable_car subway aircraft wheelchair scooter drone" speed="9.14" length="13.56" width="3.00" shape="-10.96,4.88 -8.81,1.37 -5.14,-0.78 0.00,-1.50"/>
    </edge>
    <edge id=":1_3" function="internal">
        <lane id=":1_3_0" index="0" disallow="pedestrian tram rail_urban rail rail_electric rail_fast ship container cable_car subway aircraft wheelchair scooter drone" speed="7.85" length="13.51" width="3.00" shape="0.00,1.75 -3.72,2.27 -6.37,3.81 -7.97,6.39 -8.50,10.00"/>
    </edge>
    <edge id=":1_4" function="internal">
        <lane id=":1_4_0" index="0" disallow="pedestrian tram rail_urban rail rail_electric rail_fast ship container cable_car subway aircraft wheelchair scooter drone" speed="13.89" length="20.00" width="3.00" shape="0.00,1.75 -20.00,1.50"/>
    </edge>
    <edge id=":1_5" function="internal">
        <lane id=":1_5_0" index="0" disallow="pedestrian tram rail_urban rail rail_electric rail_fast ship container cable_car subway aircraft wheelchair scooter drone" speed="9.19" length="5.43" width="3.50" shape="0.00,1.75 -5.14,1.02 -5.34,0.89"/>
    </edge>
    <edge id=":1_13" function="internal">
        <lane id=":1_13_0" index="0" disallow="pedestrian tram rail_urban rail rail_electric rail_fast ship container cable_car subway aircraft wheelchair scooter drone" speed="9.19" length="13.52" width="3.50" shape="-5.34,0.89 -8.81,-1.19 -11.02,-4.86 -11.75,-10.00"/>
    </edge>
    <edge id=":1_6" function="internal">
        <lane id=":1_6_0" index="0" speed="7.86" length="13.71" width="3.00" shape="-8.50,-10.00 -7.97,-6.28 -6.38,-3.62 -3.72,-2.03 0.00,-1.50"/>
    </edge>
    <edge id=":1_7" function="internal">
        <lane id=":1_7_0" index="0" speed="13.89" length="20.00" width="3.00" shape="-8.50,-10.00 -8.50,10.00"/>
    </edge>
    <edge id=":1_8" function="internal">
        <lane id=":1_8_0" index="0" speed="9.06" length="4.31" width="3.00" shape="-8.50,-10.00 -9.11,-5.74"/>
    </edge>
    <edge id=":1_14" function="internal">
        <lane id=":1_14_0" index="0" speed="9.06" length="14.24" width="3.00" shape="-9.11,-5.74 -9.22,-4.97 -11.38,-1.37 -14.97,0.78 -20.00,1.50"/>
    </edge>
    <edge id=":1_9" function="internal">
        <lane id=":1_9_0" index="0" disallow="pedestrian tram rail_urban rail rail_electric rail_fast ship container cable_car subway aircraft wheelchair scooter drone" speed="7.79" length="13.31" width="3.50" shape="-20.00,-1.75 -16.39,-2.27 -13.81,-3.81 -12.27,-6.39 -11.75,-10.00"/>
    </edge>
    <edge id=":1_10" function="internal">
        <lane id=":1_10_0" index="0" disallow="pedestrian tram rail_urban rail rail_electric rail_fast ship container cable_car subway aircraft wheelchair scooter drone" speed="13.89" length="20.00" width="3.00" shape="-20.00,-1.75 0.00,-1.50"/>
    </edge>
    <edge id=":1_11" function="internal">
        <lane id=":1_11_0" index="0" disallow="pedestrian tram rail_urban rail rail_electric rail_fast ship container cable_car subway aircraft wheelchair scooter drone" speed="9.14" length="5.31" width="3.00" shape="-20.00,-1.75 -14.97,-1.02 -14.78,-0.90"/>
    </edge>
    <edge id=":1_15" function="internal">
        <lane id=":1_15_0" index="0" disallow="pedestrian tram rail_urban rail rail_electric rail_fast ship container cable_car subway aircraft wheelchair scooter drone" speed="9.14" length="13.44" width="3.00" shape="-14.78,-0.90 -11.37,1.19 -9.22,4.86 -8.50,10.00"/>
    </edge>
    <edge id=":183349848.end_0" function="internal">
        <lane id=":183349848.end_0_0" index="0" disallow="pedestrian tram rail_urban rail rail_electric rail_fast ship container cable_car subway aircraft wheelchair scooter drone" speed="3.63" length="4.75" width="3.50" shape="16.73,143.30 18.19,143.44 18.93,143.96 18.96,144.87 18.26,146.16"/>
    </edge>
    <edge id=":183349849.begin_0" function="internal">
        <lane id=":183349849.begin_0_0" index="0" disallow="pedestrian tram rail_urban rail rail_electric rail_fast ship container cable_car subway aircraft wheelchair scooter drone" speed="3.73" length="4.75" width="3.00" shape="231.55,-21.71 231.83,-20.27 231.55,-19.41 230.69,-19.12 229.25,-19.41"/>
    </edge>
    <edge id=":183349851.end_0" function="internal">
        <lane id=":183349851.end_0_0" index="0" disallow="pedestrian tram rail_urban rail rail_electric rail_fast ship container cable_car subway aircraft wheelchair scooter drone" speed="3.63" length="4.75" width="3.50" shape="139.45,56.26 139.74,57.70 139.45,58.56 138.59,58.84 137.15,58.56"/>
    </edge>
    <edge id=":183349852.end_0" function="internal">
        <lane id=":183349852.end_0_0" index="0" disallow="pedestrian tram rail_urban rail rail_electric rail_fast ship container cable_car subway aircraft wheelchair scooter drone" speed="3.63" length="4.75" width="3.50" shape="22.74,130.33 22.61,131.79 22.09,132.54 21.18,132.57 19.88,131.89"/>
    </edge>

    <edge id="-183349848" from="1" to="183349848.end" priority="1" type="driving|sidewalk" shape="-20.00,0.00 -50.00,0.00 -52.00,0.00 -54.00,0.01 -56.00,0.04 -58.00,0.09 -60.00,0.17 -61.99,0.29 -63.99,0.46 -65.97,0.68 -67.95,0.97 -69.92,1.33 -71.87,1.77 -73.80,2.28 -75.72,2.87 -77.60,3.54 -79.46,4.28 -81.28,5.09 -83.08,5.98 -84.83,6.94 -86.55,7.97 -88.22,9.06 -89.85,10.22 -91.43,11.45 -92.96,12.74 -94.44,14.09 -95.86,15.49 -97.22,16.95 -98.53,18.47 -99.77,20.04 -100.95,21.65 -102.06,23.31 -103.11,25.02 -104.09,26.76 -105.00,28.54 -105.84,30.36 -106.61,32.20 -107.31,34.08 -107.94,35.97 -108.50,37.89 -108.99,39.83 -109.42,41.78 -109.78,43.75 -110.07,45.73 -110.30,47.72 -110.47,49.71 -110.57,51.71 -110.61,53.71 -110.59,55.71 -110.51,57.71 -110.37,59.70 -110.18,61.69 -109.93,63.68 -109.63,65.65 -109.27,67.62 -108.87,69.58 -108.42,71.53 -107.92,73.46 -107.37,75.39 -106.78,77.30 -106.15,79.20 -105.48,81.08 -104.77,82.95 -104.02,84.80 -103.23,86.64 -102.41,88.47 -101.56,90.28 -100.67,92.07 -99.75,93.85 -98.81,95.61 -97.84,97.36 -96.84,99.09 -95.81,100.81 -94.76,102.51 -93.69,104.20 -92.60,105.87 -91.48,107.53 -90.34,109.17 -89.17,110.80 -87.99,112.41 -86.78,114.00 -85.55,115.58 -84.30,117.14 -83.03,118.68 -81.74,120.21 -80.42,121.72 -79.09,123.21 -77.73,124.68 -76.35,126.13 -74.96,127.56 -74.25,128.27 -72.83,129.67 -71.38,131.06 -69.92,132.42 -68.43,133.75 -66.92,135.07 -65.39,136.35 -63.84,137.61 -62.26,138.84 -60.66,140.04 -59.04,141.21 -57.39,142.35 -55.72,143.45 -54.03,144.51 -52.31,145.54 -50.57,146.52 -48.81,147.47 -47.02,148.37 -45.21,149.23 -43.39,150.04 -41.54,150.80 -39.67,151.51 -37.78,152.17 -35.88,152.78 -33.95,153.33 -32.02,153.83 -30.06,154.26 -28.10,154.64 -26.12,154.95 -24.14,155.20 -22.15,155.39 -20.15,155.51 -18.15,155.56 -16.15,155.54 -14.16,155.45 -12.16,155.28 -10.18,155.05 -8.20,154.74 -6.24,154.36 -4.29,153.90 -2.36,153.36 -0.49,152.77 1.37,152.12 3.21,151.43 5.04,150.69 6.85,149.91 8.65,149.10 10.43,148.25 12.20,147.37 13.96,146.47 15.70,145.55 17.44,144.62">
        <lane id="-183349848_0" index="0" speed="13.89" length="303.23" width="3.00" shape="-20.00,1.50 -50.00,1.50 -52.00,1.50 -53.99,1.51 -55.97,1.54 -57.95,1.59 -59.92,1.67 -61.88,1.79 -63.84,1.95 -65.78,2.17 -67.71,2.45 -69.62,2.80 -71.51,3.23 -73.39,3.72 -75.25,4.29 -77.07,4.94 -78.88,5.66 -80.64,6.45 -82.39,7.31 -84.08,8.24 -85.75,9.24 -87.37,10.30 -88.95,11.42 -90.49,12.62 -91.97,13.87 -93.41,15.18 -94.78,16.54 -96.10,17.95 -97.37,19.42 -98.58,20.95 -99.72,22.51 -100.80,24.12 -101.82,25.78 -102.77,27.47 -103.65,29.20 -104.47,30.96 -105.21,32.75 -105.90,34.58 -106.51,36.42 -107.05,38.28 -107.53,40.18 -107.95,42.08 -108.30,43.99 -108.58,45.92 -108.81,47.87 -108.97,49.81 -109.07,51.76 -109.11,53.72 -109.09,55.67 -109.01,57.63 -108.88,59.58 -108.69,61.53 -108.44,63.47 -108.15,65.40 -107.80,67.34 -107.40,69.26 -106.96,71.17 -106.47,73.07 -105.93,74.96 -105.35,76.84 -104.73,78.71 -104.07,80.56 -103.37,82.40 -102.64,84.22 -101.86,86.04 -101.05,87.84 -100.21,89.63 -99.33,91.39 -98.42,93.15 -97.49,94.89 -96.53,96.62 -95.55,98.33 -94.53,100.03 -93.49,101.71 -92.43,103.39 -91.35,105.04 -90.24,106.68 -89.11,108.30 -87.96,109.92 -86.79,111.51 -85.59,113.09 -84.37,114.65 -83.14,116.19 -81.88,117.72 -80.60,119.23 -79.30,120.73 -77.98,122.20 -76.64,123.65 -75.27,125.09 -73.89,126.51 -73.19,127.20 -71.78,128.59 -70.35,129.97 -68.91,131.31 -67.44,132.63 -65.95,133.93 -64.44,135.19 -62.91,136.44 -61.35,137.65 -59.77,138.83 -58.17,139.98 -56.55,141.11 -54.91,142.19 -53.25,143.23 -51.56,144.24 -49.85,145.21 -48.12,146.14 -46.36,147.02 -44.58,147.87 -42.80,148.66 -40.99,149.40 -39.16,150.10 -37.30,150.75 -35.45,151.34 -33.56,151.88 -31.67,152.37 -29.76,152.79 -27.84,153.16 -25.91,153.46 -23.97,153.71 -22.03,153.89 -20.09,154.01 -18.14,154.06 -16.19,154.04 -14.26,153.95 -12.31,153.79 -10.38,153.56 -8.46,153.26 -6.56,152.89 -4.66,152.45 -2.79,151.92 -0.96,151.35 0.86,150.71 2.67,150.03 4.46,149.31 6.25,148.54 8.02,147.74 9.77,146.90 11.52,146.03 13.27,145.14 15.00,144.23 16.73,143.30" type="sidewalk"/>
    </edge>
    <edge id="-183349849" from="183349849.begin" to="1" priority="0" type="driving|sidewalk" shape="230.31,-20.47 228.89,-21.89 227.48,-23.30 226.06,-24.71 224.65,-26.12 223.23,-27.54 221.81,-28.95 220.39,-30.35 218.97,-31.76 217.54,-33.16 216.11,-34.56 214.68,-35.96 213.25,-37.35 211.81,-38.75 210.37,-40.13 208.93,-41.51 207.48,-42.89 206.02,-44.27 204.56,-45.63 203.10,-47.00 201.63,-48.35 200.15,-49.70 198.67,-51.05 197.18,-52.38 195.69,-53.71 194.19,-55.04 192.68,-56.35 191.17,-57.66 189.65,-58.95 188.12,-60.24 186.58,-61.52 185.03,-62.79 183.48,-64.05 181.92,-65.30 180.35,-66.54 178.77,-67.76 177.18,-68.98 175.58,-70.18 173.97,-71.37 172.36,-72.55 170.73,-73.71 169.10,-74.86 167.45,-76.00 165.79,-77.12 164.13,-78.23 162.45,-79.32 160.77,-80.40 159.07,-81.46 157.36,-82.50 155.65,-83.53 153.92,-84.53 152.18,-85.52 150.43,-86.49 148.67,-87.44 146.90,-88.38 145.12,-89.29 143.33,-90.18 141.53,-91.05 139.72,-91.90 137.90,-92.72 136.07,-93.53 134.23,-94.31 132.38,-95.07 130.51,-95.80 128.64,-96.51 126.76,-97.19 124.88,-97.85 122.98,-98.48 121.07,-99.08 119.16,-99.66 117.23,-100.21 115.30,-100.73 113.36,-101.22 111.42,-101.68 109.47,-102.11 107.51,-102.52 105.54,-102.89 103.57,-103.23 101.59,-103.54 99.61,-103.81 97.63,-104.05 95.64,-104.26 93.65,-104.44 91.65,-104.58 89.65,-104.68 87.66,-104.76 85.66,-104.79 83.66,-104.79 81.66,-104.75 79.66,-104.68 77.66,-104.57 75.67,-104.42 73.68,-104.23 71.69,-104.00 69.71,-103.74 67.73,-103.43 65.76,-103.09 63.80,-102.71 61.84,-102.29 59.90,-101.82 57.96,-101.32 56.04,-100.78 54.12,-100.19 52.22,-99.57 51.28,-99.24 49.40,-98.55 47.54,-97.82 45.69,-97.06 43.86,-96.25 42.05,-95.40 40.26,-94.51 38.48,-93.59 36.73,-92.63 35.00,-91.63 33.29,-90.59 31.60,-89.51 29.94,-88.40 28.30,-87.25 26.69,-86.07 25.10,-84.85 23.54,-83.60 22.01,-82.31 20.51,-80.99 19.03,-79.64 17.59,-78.26 16.18,-76.85 14.79,-75.40 13.44,-73.93 12.12,-72.42 10.83,-70.89 9.58,-69.33 8.36,-67.75 7.18,-66.14 6.03,-64.50 4.92,-62.84 3.84,-61.15 2.80,-59.44 1.80,-57.71 0.84,-55.96 -0.09,-54.19 -0.98,-52.39 -1.82,-50.58 -2.63,-48.75 -3.40,-46.91 -4.13,-45.04 -4.81,-43.17 -5.46,-41.27 -6.07,-39.37 -6.63,-37.45 -7.15,-35.52 -7.63,-33.58 -8.07,-31.62 -8.46,-29.66 -8.81,-27.69 -9.12,-25.72 -9.39,-23.74 -9.61,-21.75 -9.71,-20.75 -9.84,-18.97 -9.93,-17.17 -9.97,-15.38 -10.00,-13.59 -10.00,-11.79 -10.00,-10.00">
        <lane id="-183349849_0" index="0" speed="13.89" length="319.23" width="3.00" shape="229.25,-19.41 227.83,-20.83 226.42,-22.24 225.00,-23.65 223.59,-25.06 222.17,-26.48 220.75,-27.88 219.33,-29.28 217.92,-30.69 216.49,-32.09 215.06,-33.49 213.63,-34.89 212.20,-36.27 210.77,-37.67 209.33,-39.05 207.89,-40.43 206.45,-41.80 204.99,-43.18 203.54,-44.53 202.08,-45.90 200.62,-47.24 199.14,-48.59 197.67,-49.94 196.18,-51.26 194.69,-52.59 193.20,-53.91 191.70,-55.22 190.19,-56.52 188.68,-57.80 187.16,-59.09 185.63,-60.36 184.08,-61.63 182.54,-62.88 180.99,-64.13 179.43,-65.36 177.86,-66.57 176.27,-67.78 174.68,-68.98 173.08,-70.16 171.48,-71.33 169.86,-72.49 168.24,-73.63 166.60,-74.76 164.95,-75.87 163.30,-76.98 161.64,-78.06 159.97,-79.13 158.28,-80.18 156.58,-81.22 154.89,-82.24 153.17,-83.23 151.45,-84.21 149.71,-85.17 147.96,-86.12 146.21,-87.05 144.44,-87.95 142.67,-88.83 140.88,-89.70 139.09,-90.54 137.29,-91.35 135.47,-92.15 133.65,-92.93 131.82,-93.68 129.97,-94.40 128.12,-95.10 126.26,-95.78 124.40,-96.43 122.52,-97.05 120.63,-97.65 118.74,-98.22 116.83,-98.76 114.92,-99.28 113.00,-99.76 111.09,-100.22 109.15,-100.64 107.22,-101.05 105.27,-101.41 103.33,-101.75 101.37,-102.06 99.42,-102.32 97.46,-102.56 95.49,-102.77 93.53,-102.94 91.56,-103.08 89.58,-103.18 87.62,-103.26 85.65,-103.29 83.67,-103.29 81.70,-103.25 79.73,-103.18 77.76,-103.07 75.80,-102.93 73.84,-102.74 71.87,-102.51 69.92,-102.26 67.97,-101.95 66.03,-101.61 64.10,-101.24 62.17,-100.83 60.26,-100.36 58.35,-99.87 56.46,-99.34 54.57,-98.76 52.70,-98.15 51.79,-97.83 49.93,-97.15 48.10,-96.43 46.28,-95.68 44.48,-94.89 42.70,-94.05 40.94,-93.17 39.19,-92.27 37.47,-91.32 35.77,-90.34 34.08,-89.32 32.42,-88.25 30.79,-87.16 29.17,-86.03 27.59,-84.87 26.03,-83.67 24.49,-82.44 22.99,-81.17 21.51,-79.87 20.05,-78.54 18.64,-77.19 17.25,-75.80 15.88,-74.37 14.56,-72.93 13.26,-71.44 11.99,-69.94 10.76,-68.40 9.56,-66.85 8.40,-65.27 7.27,-63.65 6.18,-62.02 5.11,-60.36 4.09,-58.67 3.11,-56.97 2.16,-55.25 1.25,-53.51 0.37,-51.74 -0.45,-49.96 -1.25,-48.16 -2.01,-46.35 -2.73,-44.51 -3.40,-42.67 -4.04,-40.80 -4.64,-38.93 -5.19,-37.04 -5.70,-35.14 -6.17,-33.24 -6.60,-31.31 -6.99,-29.38 -7.33,-27.44 -7.64,-25.50 -7.90,-23.56 -8.12,-21.59 -8.22,-20.63 -8.34,-18.88 -8.43,-17.12 -8.47,-15.35 -8.50,-13.58 -8.50,-11.79 -8.50,-10.00" type="sidewalk"/>
    </edge>
    <edge id="-183349851#0" from="1" to="183349851.end" priority="1" type="driving|sidewalk" shape="0.00,0.00 1.00,0.00 16.00,0.00 50.00,0.00 52.00,0.03 54.00,0.11 55.99,0.24 57.98,0.43 59.97,0.67 61.95,0.96 63.92,1.30 65.88,1.70 67.83,2.15 69.76,2.65 71.69,3.20 73.59,3.81 75.48,4.46 77.35,5.17 79.21,5.92 81.04,6.72 82.85,7.58 84.63,8.48 86.39,9.42 88.13,10.42 89.84,11.46 91.52,12.54 93.17,13.67 94.79,14.84 96.38,16.06 97.93,17.32 99.45,18.61 100.94,19.95 102.39,21.33 103.03,21.96 138.39,57.32">
        <lane id="-183349851#0_0" index="0" speed="13.89" length="160.08" width="3.00" shape="0.00,-1.50 1.00,-1.50 16.00,-1.50 50.00,-1.50 52.04,-1.47 54.08,-1.39 56.11,-1.26 58.14,-1.06 60.17,-0.82 62.19,-0.52 64.20,-0.17 66.20,0.23 68.19,0.69 70.15,1.20 72.12,1.76 74.06,2.39 75.99,3.05 77.90,3.77 79.79,4.54 81.66,5.36 83.51,6.23 85.32,7.15 87.12,8.11 88.89,9.13 90.64,10.19 92.35,11.29 94.03,12.44 95.69,13.64 97.31,14.88 98.89,16.17 100.44,17.48 101.96,18.85 103.43,20.25 104.09,20.90 139.45,56.26" type="sidewalk"/>
    </edge>
    <edge id="-183349852" from="1" to="183349852.end" priority="1" type="driving|sidewalk" shape="-10.00,10.00 -10.00,48.00 -9.98,50.00 -9.92,52.00 -9.82,54.00 -9.68,55.99 -9.50,57.98 -9.28,59.97 -9.02,61.95 -8.72,63.93 -8.38,65.90 -8.01,67.87 -7.59,69.82 -7.13,71.77 -6.64,73.71 -6.11,75.64 -5.53,77.55 -4.92,79.46 -4.28,81.35 -3.59,83.23 -2.87,85.09 -2.11,86.94 -1.31,88.78 -0.48,90.59 0.39,92.39 1.30,94.18 2.24,95.94 21.42,131.05">
        <lane id="-183349852_0" index="0" speed="13.89" length="127.25" width="3.00" shape="-8.50,10.00 -8.50,48.00 -8.48,49.97 -8.42,51.94 -8.32,53.91 -8.18,55.87 -8.01,57.83 -7.79,59.79 -7.53,61.74 -7.24,63.69 -6.90,65.63 -6.54,67.57 -6.13,69.49 -5.67,71.41 -5.19,73.33 -4.67,75.22 -4.10,77.10 -3.50,78.99 -2.87,80.85 -2.19,82.70 -1.48,84.53 -0.73,86.36 0.06,88.17 0.88,89.95 1.73,91.72 2.63,93.49 3.56,95.23 22.74,130.33" type="sidewalk"/>
    </edge>
    <edge id="183349848" from="183349848.end" to="1" priority="2" type="sidewalk|driving" shape="17.44,144.62 15.70,145.55 13.96,146.47 12.20,147.37 10.43,148.25 8.65,149.10 6.85,149.91 5.04,150.69 3.21,151.43 1.37,152.12 -0.49,152.77 -2.36,153.36 -4.29,153.90 -6.24,154.36 -8.20,154.74 -10.18,155.05 -12.16,155.28 -14.16,155.45 -16.15,155.54 -18.15,155.56 -20.15,155.51 -22.15,155.39 -24.14,155.20 -26.12,154.95 -28.10,154.64 -30.06,154.26 -32.02,153.83 -33.95,153.33 -35.88,152.78 -37.78,152.17 -39.67,151.51 -41.54,150.80 -43.39,150.04 -45.21,149.23 -47.02,148.37 -48.81,147.47 -50.57,146.52 -52.31,145.54 -54.03,144.51 -55.72,143.45 -57.39,142.35 -59.04,141.21 -60.66,140.04 -62.26,138.84 -63.84,137.61 -65.39,136.35 -66.92,135.07 -68.43,133.75 -69.92,132.42 -71.38,131.06 -72.83,129.67 -74.25,128.27 -74.96,127.56 -76.35,126.13 -77.73,124.68 -79.09,123.21 -80.42,121.72 -81.74,120.21 -83.03,118.68 -84.30,117.14 -85.55,115.58 -86.78,114.00 -87.99,112.41 -89.17,110.80 -90.34,109.17 -91.48,107.53 -92.60,105.87 -93.69,104.20 -94.76,102.51 -95.81,100.81 -96.84,99.09 -97.84,97.36 -98.81,95.61 -99.75,93.85 -100.67,92.07 -101.56,90.28 -102.41,88.47 -103.23,86.64 -104.02,84.80 -104.77,82.95 -105.48,81.08 -106.15,79.20 -106.78,77.30 -107.37,75.39 -107.92,73.46 -108.42,71.53 -108.87,69.58 -109.27,67.62 -109.63,65.65 -109.93,63.68 -110.18,61.69 -110.37,59.70 -110.51,57.71 -110.59,55.71 -110.61,53.71 -110.57,51.71 -110.47,49.71 -110.30,47.72 -110.07,45.73 -109.78,43.75 -109.42,41.78 -108.99,39.83 -108.50,37.89 -107.94,35.97 -107.31,34.08 -106.61,32.20 -105.84,30.36 -105.00,28.54 -104.09,26.76 -103.11,25.02 -102.06,23.31 -100.95,21.65 -99.77,20.04 -98.53,18.47 -97.22,16.95 -95.86,15.49 -94.44,14.09 -92.96,12.74 -91.43,11.45 -89.85,10.22 -88.22,9.06 -86.55,7.97 -84.83,6.94 -83.08,5.98 -81.28,5.09 -79.46,4.28 -77.60,3.54 -75.72,2.87 -73.80,2.28 -71.87,1.77 -69.92,1.33 -67.95,0.97 -65.97,0.68 -63.99,0.46 -61.99,0.29 -60.00,0.17 -58.00,0.09 -56.00,0.04 -54.00,0.01 -52.00,0.00 -50.00,0.00 -20.00,0.00">
        <lane id="183349848_0" index="0" disallow="pedestrian tram rail_urban rail rail_electric rail_fast ship container cable_car subway aircraft wheelchair scooter drone" speed="13.89" length="315.04" width="3.50" shape="18.26,146.16 16.52,147.10 14.77,148.02 12.99,148.93 11.20,149.82 9.39,150.69 7.56,151.51 5.71,152.30 3.85,153.06 1.97,153.77 0.06,154.43 -1.86,155.04 -3.85,155.59 -5.87,156.07 -7.90,156.46 -9.94,156.78 -11.99,157.02 -14.05,157.20 -16.10,157.29 -18.16,157.31 -20.22,157.26 -22.29,157.13 -24.33,156.94 -26.37,156.68 -28.40,156.36 -30.41,155.97 -32.43,155.53 -34.41,155.02 -36.39,154.45 -38.34,153.83 -40.27,153.15 -42.18,152.43 -44.08,151.65 -45.94,150.82 -47.79,149.94 -49.62,149.02 -51.42,148.05 -53.19,147.05 -54.94,146.00 -56.67,144.92 -58.37,143.80 -60.05,142.64 -61.70,141.45 -63.32,140.23 -64.93,138.98 -66.50,137.70 -68.06,136.40 -69.59,135.06 -71.10,133.71 -72.58,132.33 -74.05,130.92 -75.48,129.51 -76.21,128.79 -77.61,127.34 -79.01,125.88 -80.39,124.39 -81.73,122.88 -83.07,121.35 -84.37,119.80 -85.66,118.24 -86.92,116.66 -88.17,115.07 -89.39,113.46 -90.59,111.83 -91.77,110.18 -92.92,108.52 -94.06,106.84 -95.16,105.15 -96.24,103.44 -97.31,101.72 -98.35,99.98 -99.36,98.22 -100.35,96.45 -101.30,94.66 -102.23,92.86 -103.14,91.04 -104.00,89.20 -104.83,87.34 -105.63,85.47 -106.40,83.59 -107.12,81.68 -107.80,79.77 -108.45,77.83 -109.05,75.89 -109.61,73.92 -110.12,71.95 -110.58,69.95 -110.99,67.95 -111.36,65.94 -111.66,63.92 -111.92,61.88 -112.11,59.84 -112.26,57.81 -112.34,55.75 -112.36,53.70 -112.32,51.65 -112.22,49.59 -112.04,47.55 -111.81,45.50 -111.51,43.47 -111.14,41.43 -110.69,39.43 -110.19,37.43 -109.61,35.45 -108.96,33.50 -108.24,31.56 -107.44,29.66 -106.57,27.77 -105.63,25.93 -104.62,24.13 -103.53,22.37 -102.38,20.65 -101.16,18.98 -99.88,17.36 -98.52,15.78 -97.11,14.27 -95.64,12.82 -94.11,11.42 -92.53,10.09 -90.90,8.82 -89.21,7.61 -87.48,6.49 -85.70,5.42 -83.89,4.43 -82.02,3.51 -80.14,2.67 -78.22,1.90 -76.27,1.21 -74.28,0.60 -72.29,0.07 -70.27,-0.38 -68.23,-0.76 -66.19,-1.06 -64.16,-1.28 -62.12,-1.46 -60.09,-1.58 -58.06,-1.66 -56.03,-1.71 -54.02,-1.74 -52.00,-1.75 -50.00,-1.75 -20.00,-1.75" type="driving"/>
    </edge>
    <edge id="183349849" from="1" to="183349849.begin" priority="1" type="sidewalk|driving" shape="-10.00,-10.00 -10.00,-11.79 -10.00,-13.59 -9.97,-15.38 -9.93,-17.17 -9.84,-18.97 -9.71,-20.75 -9.61,-21.75 -9.39,-23.74 -9.12,-25.72 -8.81,-27.69 -8.46,-29.66 -8.07,-31.62 -7.63,-33.58 -7.15,-35.52 -6.63,-37.45 -6.07,-39.37 -5.46,-41.27 -4.81,-43.17 -4.13,-45.04 -3.40,-46.91 -2.63,-48.75 -1.82,-50.58 -0.98,-52.39 -0.09,-54.19 0.84,-55.96 1.80,-57.71 2.80,-59.44 3.84,-61.15 4.92,-62.84 6.03,-64.50 7.18,-66.14 8.36,-67.75 9.58,-69.33 10.83,-70.89 12.12,-72.42 13.44,-73.93 14.79,-75.40 16.18,-76.85 17.59,-78.26 19.03,-79.64 20.51,-80.99 22.01,-82.31 23.54,-83.60 25.10,-84.85 26.69,-86.07 28.30,-87.25 29.94,-88.40 31.60,-89.51 33.29,-90.59 35.00,-91.63 36.73,-92.63 38.48,-93.59 40.26,-94.51 42.05,-95.40 43.86,-96.25 45.69,-97.06 47.54,-97.82 49.40,-98.55 51.28,-99.24 52.22,-99.57 54.12,-100.19 56.04,-100.78 57.96,-101.32 59.90,-101.82 61.84,-102.29 63.80,-102.71 65.76,-103.09 67.73,-103.43 69.71,-103.74 71.69,-104.00 73.68,-104.23 75.67,-104.42 77.66,-104.57 79.66,-104.68 81.66,-104.75 83.66,-104.79 85.66,-104.79 87.66,-104.76 89.65,-104.68 91.65,-104.58 93.65,-104.44 95.64,-104.26 97.63,-104.05 99.61,-103.81 101.59,-103.54 103.57,-103.23 105.54,-102.89 107.51,-102.52 109.47,-102.11 111.42,-101.68 113.36,-101.22 115.30,-100.73 117.23,-100.21 119.16,-99.66 121.07,-99.08 122.98,-98.48 124.88,-97.85 126.76,-97.19 128.64,-96.51 130.51,-95.80 132.38,-95.07 134.23,-94.31 136.07,-93.53 137.90,-92.72 139.72,-91.90 141.53,-91.05 143.33,-90.18 145.12,-89.29 146.90,-88.38 148.67,-87.44 150.43,-86.49 152.18,-85.52 153.92,-84.53 155.65,-83.53 157.36,-82.50 159.07,-81.46 160.77,-80.40 162.45,-79.32 164.13,-78.23 165.79,-77.12 167.45,-76.00 169.10,-74.86 170.73,-73.71 172.36,-72.55 173.97,-71.37 175.58,-70.18 177.18,-68.98 178.77,-67.76 180.35,-66.54 181.92,-65.30 183.48,-64.05 185.03,-62.79 186.58,-61.52 188.12,-60.24 189.65,-58.95 191.17,-57.66 192.68,-56.35 194.19,-55.04 195.69,-53.71 197.18,-52.38 198.67,-51.05 200.15,-49.70 201.63,-48.35 203.10,-47.00 204.56,-45.63 206.02,-44.27 207.48,-42.89 208.93,-41.51 210.37,-40.13 211.81,-38.75 213.25,-37.35 214.68,-35.96 216.11,-34.56 217.54,-33.16 218.97,-31.76 220.39,-30.35 221.81,-28.95 223.23,-27.54 224.65,-26.12 226.06,-24.71 227.48,-23.30 228.89,-21.89 230.31,-20.47">
        <lane id="183349849_0" index="0" disallow="pedestrian tram rail_urban rail rail_electric rail_fast ship container cable_car subway aircraft wheelchair scooter drone" speed="13.89" length="326.89" width="3.50" shape="-11.75,-10.00 -11.75,-11.79 -11.75,-13.60 -11.72,-15.41 -11.68,-17.23 -11.59,-19.08 -11.45,-20.89 -11.35,-21.94 -11.13,-23.95 -10.85,-25.97 -10.54,-27.98 -10.18,-29.98 -9.78,-31.98 -9.33,-33.98 -8.84,-35.96 -8.31,-37.92 -7.74,-39.88 -7.12,-41.82 -6.46,-43.75 -5.77,-45.66 -5.02,-47.57 -4.24,-49.44 -3.41,-51.30 -2.56,-53.15 -1.65,-54.98 -0.70,-56.79 0.28,-58.57 1.29,-60.33 2.36,-62.08 3.46,-63.80 4.59,-65.49 5.76,-67.16 6.96,-68.80 8.20,-70.41 9.48,-72.00 10.79,-73.56 12.14,-75.10 13.51,-76.60 14.93,-78.07 16.37,-79.51 17.83,-80.92 19.34,-82.29 20.87,-83.64 22.43,-84.95 24.02,-86.23 25.64,-87.47 27.28,-88.67 28.95,-89.84 30.64,-90.97 32.36,-92.07 34.11,-93.14 35.87,-94.15 37.66,-95.13 39.47,-96.07 41.29,-96.98 43.13,-97.84 45.00,-98.67 46.89,-99.44 48.78,-100.19 50.68,-100.89 51.66,-101.23 53.59,-101.86 55.55,-102.46 57.50,-103.01 59.48,-103.52 61.45,-104.00 63.45,-104.42 65.44,-104.81 67.45,-105.16 69.46,-105.47 71.48,-105.74 73.50,-105.97 75.52,-106.16 77.55,-106.32 79.58,-106.43 81.61,-106.50 83.64,-106.54 85.67,-106.54 87.71,-106.51 89.73,-106.43 91.75,-106.33 93.79,-106.18 95.81,-106.00 97.83,-105.79 99.83,-105.55 101.84,-105.27 103.85,-104.96 105.85,-104.61 107.85,-104.24 109.84,-103.82 111.81,-103.39 113.78,-102.92 115.74,-102.42 117.70,-101.90 119.65,-101.34 121.59,-100.75 123.52,-100.15 125.45,-99.51 127.35,-98.84 129.25,-98.15 131.14,-97.43 133.03,-96.69 134.90,-95.92 136.77,-95.14 138.61,-94.32 140.45,-93.49 142.28,-92.63 144.10,-91.75 145.91,-90.85 147.71,-89.93 149.50,-88.98 151.27,-88.03 153.04,-87.05 154.79,-86.05 156.54,-85.04 158.27,-84.00 159.99,-82.95 161.71,-81.88 163.40,-80.79 165.09,-79.69 166.77,-78.57 168.44,-77.45 170.10,-76.29 171.74,-75.14 173.38,-73.97 175.01,-72.78 176.63,-71.58 178.24,-70.37 179.84,-69.15 181.43,-67.92 183.01,-66.67 184.58,-65.41 186.14,-64.15 187.69,-62.87 189.24,-61.58 190.78,-60.29 192.31,-58.99 193.83,-57.67 195.34,-56.36 196.85,-55.02 198.35,-53.69 199.84,-52.35 201.33,-50.99 202.81,-49.64 204.29,-48.28 205.76,-46.91 207.22,-45.55 208.68,-44.16 210.14,-42.78 211.58,-41.39 213.03,-40.01 214.47,-38.60 215.90,-37.21 217.33,-35.81 218.76,-34.41 220.20,-33.01 221.62,-31.59 223.04,-30.19 224.47,-28.78 225.89,-27.36 227.30,-25.95 228.72,-24.54 230.13,-23.13 231.55,-21.71" type="driving"/>
    </edge>
    <edge id="183349851#2" from="183349851.end" to="1" priority="2" type="sidewalk|driving" shape="138.39,57.32 103.03,21.96 102.39,21.33 100.94,19.95 99.45,18.61 97.93,17.32 96.38,16.06 94.79,14.84 93.17,13.67 91.52,12.54 89.84,11.46 88.13,10.42 86.39,9.42 84.63,8.48 82.85,7.58 81.04,6.72 79.21,5.92 77.35,5.17 75.48,4.46 73.59,3.81 71.69,3.20 69.76,2.65 67.83,2.15 65.88,1.70 63.92,1.30 61.95,0.96 59.97,0.67 57.98,0.43 55.99,0.24 54.00,0.11 52.00,0.03 50.00,0.00 16.00,0.00 1.00,0.00 0.00,0.00">
        <lane id="183349851#2_0" index="0" disallow="pedestrian tram rail_urban rail rail_electric rail_fast ship container cable_car subway aircraft wheelchair scooter drone" speed="13.89" length="157.53" width="3.50" shape="137.15,58.56 101.79,23.20 101.18,22.59 99.75,21.23 98.30,19.93 96.81,18.67 95.30,17.43 93.74,16.24 92.16,15.10 90.55,14.00 88.91,12.94 87.24,11.93 85.54,10.95 83.82,10.03 82.08,9.15 80.31,8.31 78.53,7.53 76.71,6.80 74.88,6.11 73.04,5.47 71.18,4.87 69.30,4.34 67.41,3.85 65.51,3.41 63.60,3.02 61.67,2.69 59.74,2.40 57.79,2.17 55.85,1.98 53.91,1.86 51.95,1.78 49.99,1.75 16.00,1.75 1.00,1.75 0.00,1.75" type="driving"/>
    </edge>
    <edge id="183349852" from="183349852.end" to="1" priority="0" type="sidewalk|driving" shape="21.42,131.05 2.24,95.94 1.30,94.18 0.39,92.39 -0.48,90.59 -1.31,88.78 -2.11,86.94 -2.87,85.09 -3.59,83.23 -4.28,81.35 -4.92,79.46 -5.53,77.55 -6.11,75.64 -6.64,73.71 -7.13,71.77 -7.59,69.82 -8.01,67.87 -8.38,65.90 -8.72,63.93 -9.02,61.95 -9.28,59.97 -9.50,57.98 -9.68,55.99 -9.82,54.00 -9.92,52.00 -9.98,50.00 -10.00,48.00 -10.00,10.00">
        <lane id="183349852_0" index="0" disallow="pedestrian tram rail_urban rail rail_electric rail_fast ship container cable_car subway aircraft wheelchair scooter drone" speed="13.89" length="128.88" width="3.50" shape="19.88,131.89 0.70,96.78 -0.25,94.99 -1.18,93.17 -2.06,91.34 -2.91,89.49 -3.72,87.62 -4.50,85.74 -5.23,83.85 -5.93,81.93 -6.58,80.01 -7.20,78.07 -7.79,76.13 -8.33,74.16 -8.83,72.19 -9.30,70.21 -9.73,68.22 -10.10,66.21 -10.45,64.21 -10.75,62.20 -11.02,60.18 -11.24,58.15 -11.42,56.13 -11.57,54.11 -11.67,52.07 -11.73,50.03 -11.75,48.01 -11.75,10.00" type="driving"/>
    </edge>

    <tlLogic id="1" type="static" programID="0" offset="0">
        <phase duration="42" state="rrrGGgrrrGGg"/>
        <phase duration="3"  state="rrryyyrrryyy"/>
        <phase duration="42" state="GGgrrrGGgrrr"/>
        <phase duration="3"  state="yyyrrryyyrrr"/>
        <param key="linkSignalID:6" value="1011"/>
        <param key="linkSignalID:7" value="1011"/>
        <param key="linkSignalID:8" value="1011"/>
    </tlLogic>
    <tlLogic id="183349848.end" type="static" programID="0" offset="0">
        <phase duration="82" state="G"/>
        <phase duration="3"  state="y"/>
        <phase duration="5"  state="r"/>
    </tlLogic>