<?xml version="1.0" encoding="UTF-8"?>

<configuration>
    <input>
        <net-file value="sumoexample.net.xml"/>
        <route-files value="sumoexample.rou.xml"/>
    </input>
    <time>
        <begin value="0"/>
        <end value="80"/>
    </time>
	<!--<statistic-output value="stats.xml"/>-->
	<tripinfo-output value="tripinfo.xml"/>
</configuration>
